                                  MODFLOW-2005     
      U.S. GEOLOGICAL SURVEY MODULAR FINITE-DIFFERENCE GROUND-WATER FLOW MODEL
                            VERSION 1.12.00 2/3/2017

 LIST FILE: model_pago_OPT.list
                         UNIT    2

 OPENING model_pago_OPT.dis
 FILE TYPE:DIS   UNIT   11   STATUS:OLD    
 FORMAT:FORMATTED              ACCESS:SEQUENTIAL          

 OPENING model_pago_OPT.bas
 FILE TYPE:BAS6   UNIT   13   STATUS:OLD    
 FORMAT:FORMATTED              ACCESS:SEQUENTIAL          

 OPENING model_pago_OPT.lpf
 FILE TYPE:LPF   UNIT   15   STATUS:OLD    
 FORMAT:FORMATTED              ACCESS:SEQUENTIAL          

 OPENING model_pago_OPT.rch
 FILE TYPE:RCH   UNIT   19   STATUS:OLD    
 FORMAT:FORMATTED              ACCESS:SEQUENTIAL          

 OPENING model_pago_OPT.oc
 FILE TYPE:OC   UNIT   14   STATUS:OLD    
 FORMAT:FORMATTED              ACCESS:SEQUENTIAL          

 OPENING model_pago_OPT.pcg
 FILE TYPE:PCG   UNIT   27   STATUS:OLD    
 FORMAT:FORMATTED              ACCESS:SEQUENTIAL          

 OPENING model_pago_OPT.hob
 FILE TYPE:HOB   UNIT   39   STATUS:OLD    
 FORMAT:FORMATTED              ACCESS:SEQUENTIAL          

 OPENING model_pago_OPT.hds
 FILE TYPE:DATA(BINARY)   UNIT   51   STATUS:REPLACE
 FORMAT:BINARY                 ACCESS:SEQUENTIAL          

 OPENING model_pago_OPT.hob.out
 FILE TYPE:DATA   UNIT    7   STATUS:UNKNOWN
 FORMAT:FORMATTED              ACCESS:SEQUENTIAL          

 BAS -- BASIC PACKAGE, VERSION 7, 5/2/2005 INPUT READ FROM UNIT   13
 
 MODFLOW was compiled using mixed precision
 Precision of REAL variables:           6
 Precision of DOUBLE PRECISION variables:          15

 DISCRETIZATION INPUT DATA READ FROM UNIT   11
 # DIS package for  MODFLOW-2005, generated by Flopy.
    1 LAYERS       150 ROWS       150 COLUMNS
    1 STRESS PERIOD(S) IN SIMULATION
 MODEL TIME UNIT IS DAYS
 MODEL LENGTH UNIT IS METERS
  Confining bed flag for each layer:
   0

                     DELR =   50.0000    

                     DELC =   50.0000    



           TOP ELEVATION OF LAYER 1
 READING ON UNIT   11 WITH FORMAT: (150E15.6)          

   MODEL LAYER BOTTOM EL. =  -500.000     FOR LAYER   1


 STRESS PERIOD     LENGTH       TIME STEPS     MULTIPLIER FOR DELT    SS FLAG
 ----------------------------------------------------------------------------
        1         3650.000          1                    1.000         SS

 STEADY-STATE SIMULATION



 
 # BAS6 package for  MODFLOW-2005, generated by Flopy.                           
 THE FREE FORMAT OPTION HAS BEEN SELECTED



                     BOUNDARY ARRAY FOR LAYER   1
 READING ON UNIT   13 WITH FORMAT: (150I10)            

 AQUIFER HEAD WILL BE SET TO  -999.99     AT ALL NO-FLOW NODES (IBOUND=0).



                       INITIAL HEAD FOR LAYER   1
 READING ON UNIT   13 WITH FORMAT: (150E15.6)          
 # OC package for  MODFLOW-2005, generated by Flopy.

 OUTPUT CONTROL IS SPECIFIED ONLY AT TIME STEPS FOR WHICH OUTPUT IS DESIRED
 COMPACT CELL-BY-CELL BUDGET FILES WILL BE WRITTEN
 AUXILIARY DATA WILL BE SAVED IN CELL-BY-CELL BUDGET FILES
 HEAD PRINT FORMAT CODE IS   0    DRAWDOWN PRINT FORMAT CODE IS   0
 HEADS WILL BE SAVED ON UNIT   51    DRAWDOWNS WILL BE SAVED ON UNIT    0

 LPF -- LAYER-PROPERTY FLOW PACKAGE, VERSION 7, 5/2/2005
         INPUT READ FROM UNIT   15
 # LPF package for  MODFLOW-2005, generated by Flopy.
 HEAD AT CELLS THAT CONVERT TO DRY= -1.00000E+30
 No named parameters

   LAYER FLAGS:
 LAYER       LAYTYP        LAYAVG         CHANI        LAYVKA        LAYWET
 ---------------------------------------------------------------------------
    1             0             0     1.000E+00             0             0

   INTERPRETATION OF LAYER FLAGS:
                        INTERBLOCK     HORIZONTAL    DATA IN
         LAYER TYPE   TRANSMISSIVITY   ANISOTROPY   ARRAY VKA   WETTABILITY
 LAYER      (LAYTYP)      (LAYAVG)       (CHANI)      (LAYVKA)      (LAYWET)
 ---------------------------------------------------------------------------
    1      CONFINED      HARMONIC     1.000E+00    VERTICAL K  NON-WETTABLE

 WETTING CAPABILITY IS NOT ACTIVE IN ANY LAYER



              HYD. COND. ALONG ROWS FOR LAYER   1
 READING ON UNIT   15 WITH FORMAT: (150E15.6)          

      VERTICAL HYD. COND. =   10.0000     FOR LAYER   1

 RCH -- RECHARGE PACKAGE, VERSION 7, 5/2/2005 INPUT READ FROM UNIT   19
 # RCH package for  MODFLOW-2005, generated by Flopy.
 No named parameters
 OPTION 3 -- RECHARGE TO HIGHEST ACTIVE NODE IN EACH VERTICAL COLUMN


     0 Recharge parameters

 PCG -- CONJUGATE-GRADIENT SOLUTION PACKAGE, VERSION 7, 5/2/2005
 # PCG package for  MODFLOW-2005, generated by Flopy.
 MAXIMUM OF    100 CALLS OF SOLUTION ROUTINE
 MAXIMUM OF     50 INTERNAL ITERATIONS PER CALL TO SOLUTION ROUTINE
 MATRIX PRECONDITIONING TYPE :    1



                                    SOLUTION BY THE CONJUGATE-GRADIENT METHOD
                                   -------------------------------------------
                    MAXIMUM NUMBER OF CALLS TO PCG ROUTINE =      100
                        MAXIMUM ITERATIONS PER CALL TO PCG =       50
                               MATRIX PRECONDITIONING TYPE =        1
        RELAXATION FACTOR (ONLY USED WITH PRECOND. TYPE 1) =    0.10000E+01
 PARAMETER OF POLYNOMIAL PRECOND. = 2 (2) OR IS CALCULATED :        0
                         HEAD CHANGE CRITERION FOR CLOSURE =    0.10000E-05
                     RESIDUAL CHANGE CRITERION FOR CLOSURE =    0.30000E-02
            PCG HEAD AND RESIDUAL CHANGE PRINTOUT INTERVAL =      999
     PRINTING FROM SOLVER IS LIMITED(1) OR SUPPRESSED (>1) =        3
                            STEADY-STATE DAMPING PARAMETER =    0.10000E+01
                               TRANSIENT DAMPING PARAMETER =    0.10000E+01

 OBS2BAS7 -- HEAD OBSERVATIONS, VERSION 2.0, 2/28/2006
 INPUT READ FROM UNIT  39
 # HOB package for  MODFLOW-2005, generated by Flopy.

 NUMBER OF HEADS....................................:   25
   NUMBER OF MULTILAYER HEADS.......................:    0
   MAXIMUM NUMBER OF LAYERS FOR MULTILAYER HEADS....:    0
 HEAD OBSERVATIONS WILL BE SAVED ON UNIT............:    7
 SIMULATED EQUIVALENT HEAD AT DRY CELLS WILL BE:   -999.000    

 OBSERVED HEAD DATA -- TIME OFFSETS ARE MULTIPLIED BY:   1.0000    

                    REFER.
       OBSERVATION  STRESS    TIME
  OBS#    NAME      PERIOD   OFFSET    OBSERVATION
     1 Obs_0            1    0.000       62.50    
 Observation within a steady-state time step has been moved to the end of the time step.
     2 Obs_1            1    0.000       15.80    
 Observation within a steady-state time step has been moved to the end of the time step.
     3 Obs_2            1    0.000       1.200    
 Observation within a steady-state time step has been moved to the end of the time step.
     4 Obs_3            1    0.000       7.300    
 Observation within a steady-state time step has been moved to the end of the time step.
     5 Obs_4            1    0.000       7.300    
 Observation within a steady-state time step has been moved to the end of the time step.
     6 Obs_5            1    0.000       10.50    
 Observation within a steady-state time step has been moved to the end of the time step.
     7 Obs_6            1    0.000       8.200    
 Observation within a steady-state time step has been moved to the end of the time step.
     8 Obs_7            1    0.000       10.70    
 Observation within a steady-state time step has been moved to the end of the time step.
     9 Obs_8            1    0.000       14.55    
 Observation within a steady-state time step has been moved to the end of the time step.
    10 Obs_9            1    0.000       20.30    
 Observation within a steady-state time step has been moved to the end of the time step.
    11 Obs_10           1    0.000       1.200    
 Observation within a steady-state time step has been moved to the end of the time step.
    12 Obs_11           1    0.000       3.000    
 Observation within a steady-state time step has been moved to the end of the time step.
    13 Obs_12           1    0.000       6.900    
 Observation within a steady-state time step has been moved to the end of the time step.
    14 Obs_13           1    0.000       6.400    
 Observation within a steady-state time step has been moved to the end of the time step.
    15 Obs_14           1    0.000       2.700    
 Observation within a steady-state time step has been moved to the end of the time step.
    16 Obs_15           1    0.000       6.100    
 Observation within a steady-state time step has been moved to the end of the time step.
    17 Obs_16           1    0.000      0.1000    
 Observation within a steady-state time step has been moved to the end of the time step.
    18 Obs_17           1    0.000       8.100    
 Observation within a steady-state time step has been moved to the end of the time step.
    19 Obs_18           1    0.000       8.200    
 Observation within a steady-state time step has been moved to the end of the time step.
    20 Obs_19           1    0.000       5.100    
 Observation within a steady-state time step has been moved to the end of the time step.
    21 Obs_20           1    0.000       6.100    
 Observation within a steady-state time step has been moved to the end of the time step.
    22 Obs_21           1    0.000       5.500    
 Observation within a steady-state time step has been moved to the end of the time step.
    23 Obs_22           1    0.000       4.900    
 Observation within a steady-state time step has been moved to the end of the time step.
    24 Obs_23           1    0.000       6.000    
 Observation within a steady-state time step has been moved to the end of the time step.
    25 Obs_24           1    0.000       7.300    
 Observation within a steady-state time step has been moved to the end of the time step.

                                                     HEAD CHANGE
                                                      REFERENCE
        OBSERVATION                   ROW     COL    OBSERVATION
  OBS#     NAME       LAY  ROW  COL  OFFSET  OFFSET   (IF > 0)
     1  Obs_0           1   98   20   0.000   0.000        0
     2  Obs_1           1  147   24   0.000   0.000        0
     3  Obs_2           1   77   28   0.000   0.000        0
     4  Obs_3           1   79   30   0.000   0.000        0
     5  Obs_4           1   83   30   0.000   0.000        0
     6  Obs_5           1   84   31   0.000   0.000        0
     7  Obs_6           1   85   32   0.000   0.000        0
     8  Obs_7           1   85   33   0.000   0.000        0
     9  Obs_8           1   87   33   0.000   0.000        0
    10  Obs_9           1   89   33   0.000   0.000        0
    11  Obs_10          1   68   34   0.000   0.000        0
    12  Obs_11          1   76   38   0.000   0.000        0
    13  Obs_12          1   92   58   0.000   0.000        0
    14  Obs_13          1   93   58   0.000   0.000        0
    15  Obs_14          1  117   68   0.000   0.000        0
    16  Obs_15          1  114   77   0.000   0.000        0
    17  Obs_16          1   93   81   0.000   0.000        0
    18  Obs_17          1   36  111   0.000   0.000        0
    19  Obs_18          1   37  113   0.000   0.000        0
    20  Obs_19          1   68  126   0.000   0.000        0
    21  Obs_20          1   68  127   0.000   0.000        0
    22  Obs_21          1   70  127   0.000   0.000        0
    23  Obs_22          1   67  128   0.000   0.000        0
    24  Obs_23          1  100  146   0.000   0.000        0
    25  Obs_24          1   99  148   0.000   0.000        0
1
                            STRESS PERIOD NO.    1, LENGTH =   3650.000    
                            -----------------------------------------------

                              NUMBER OF TIME STEPS =     1

                               MULTIPLIER FOR DELT =     1.000

                            INITIAL TIME STEP SIZE =   3650.000    



                           RECHARGE
 READING ON UNIT   19 WITH FORMAT: (150E15.6)          
 
 SOLVING FOR HEAD 

 OUTPUT CONTROL FOR STRESS PERIOD    1   TIME STEP    1
    PRINT HEAD FOR ALL LAYERS
    PRINT BUDGET
    SAVE HEAD FOR ALL LAYERS
    SAVE BUDGET
1
              HEAD IN LAYER   1 AT END OF TIME STEP   1 IN STRESS PERIOD    1
  ---------------------------------------------------------------------------

            1           2           3           4           5           6           7           8           9          10
           11          12          13          14          15          16          17          18          19          20
           21          22          23          24          25          26          27          28          29          30
           31          32          33          34          35          36          37          38          39          40
           41          42          43          44          45          46          47          48          49          50
           51          52          53          54          55          56          57          58          59          60
           61          62          63          64          65          66          67          68          69          70
           71          72          73          74          75          76          77          78          79          80
           81          82          83          84          85          86          87          88          89          90
           91          92          93          94          95          96          97          98          99         100
          101         102         103         104         105         106         107         108         109         110
          111         112         113         114         115         116         117         118         119         120
          121         122         123         124         125         126         127         128         129         130
          131         132         133         134         135         136         137         138         139         140
          141         142         143         144         145         146         147         148         149         150
 ........................................................................................................................
   1   1.0000E-02  1.0000E-02  1.0000E-02  1.0000E-02  1.0000E-02  1.0000E-02  1.0000E-02  1.0000E-02  1.0000E-02  1.0000E-02
       1.0000E-02  1.0000E-02  1.0000E-02  1.0000E-02  1.0000E-02  1.0000E-02  1.0000E-02  1.0000E-02  1.0000E-02  1.0000E-02
       1.0000E-02  1.0000E-02  1.0000E-02  1.0000E-02  1.0000E-02  1.0000E-02  1.0000E-02  1.0000E-02  1.0000E-02  1.0000E-02
       1.0000E-02  1.0000E-02  1.0000E-02  1.0000E-02  1.0000E-02  1.0000E-02  1.0000E-02  1.0000E-02  1.0000E-02  1.0000E-02
       1.0000E-02  1.0000E-02  1.0000E-02  1.0000E-02  1.0000E-02  1.0000E-02  1.0000E-02  1.0000E-02  1.0000E-02  1.0000E-02
       1.0000E-02  1.0000E-02  1.0000E-02  1.0000E-02  1.0000E-02  1.0000E-02  1.0000E-02  1.0000E-02  1.0000E-02  1.0000E-02
       1.0000E-02  1.0000E-02  1.0000E-02  1.0000E-02  1.0000E-02  1.0000E-02  1.0000E-02  1.0000E-02  1.0000E-02  1.0000E-02
       1.0000E-02  1.0000E-02  1.0000E-02  1.0000E-02  1.0000E-02  1.0000E-02  1.0000E-02  1.0000E-02  1.0000E-02  1.0000E-02
       1.0000E-02  1.0000E-02  1.0000E-02  1.0000E-02  1.0000E-02  1.0000E-02  1.0000E-02  1.0000E-02  1.0000E-02  1.0000E-02
       1.0000E-02  1.0000E-02  1.0000E-02  1.0000E-02  1.0000E-02  1.0000E-02  1.0000E-02  1.0000E-02  1.0000E-02  1.0000E-02
       1.0000E-02  1.0000E-02  1.0000E-02  1.0000E-02   1.302      1.0000E-02  1.0000E-02  1.0000E-02  1.0000E-02  1.0000E-02
       1.0000E-02  1.0000E-02  1.0000E-02  1.0000E-02  1.0000E-02  1.0000E-02  1.0000E-02  1.0000E-02  1.0000E-02  1.0000E-02
       1.0000E-02  1.0000E-02  1.0000E-02  1.0000E-02  1.0000E-02  1.0000E-02  1.0000E-02  1.0000E-02  1.0000E-02  1.0000E-02
       1.0000E-02  1.0000E-02  1.0000E-02  1.0000E-02  1.0000E-02  1.0000E-02  1.0000E-02  1.0000E-02  1.0000E-02  1.0000E-02
       1.0000E-02  1.0000E-02  1.0000E-02  1.0000E-02  1.0000E-02  1.0000E-02  1.0000E-02  1.0000E-02  1.0000E-02  1.0000E-02
   2   1.0000E-02  1.0000E-02  1.0000E-02  1.0000E-02  1.0000E-02  1.0000E-02  1.0000E-02  1.0000E-02  1.0000E-02  1.0000E-02
       1.0000E-02  1.0000E-02  1.0000E-02  1.0000E-02  1.0000E-02  1.0000E-02  1.0000E-02  1.0000E-02  1.0000E-02  1.0000E-02
       1.0000E-02  1.0000E-02  1.0000E-02  1.0000E-02  1.0000E-02  1.0000E-02  1.0000E-02  1.0000E-02  1.0000E-02  1.0000E-02
       1.0000E-02  1.0000E-02  1.0000E-02  1.0000E-02  1.0000E-02  1.0000E-02  1.0000E-02  1.0000E-02  1.0000E-02  1.0000E-02
       1.0000E-02  1.0000E-02  1.0000E-02  1.0000E-02  1.0000E-02  1.0000E-02  1.0000E-02  1.0000E-02  1.0000E-02  1.0000E-02
       1.0000E-02  1.0000E-02  1.0000E-02  1.0000E-02  1.0000E-02  1.0000E-02  1.0000E-02  1.0000E-02  1.0000E-02  1.0000E-02
       1.0000E-02  1.0000E-02  1.0000E-02  1.0000E-02  1.0000E-02  1.0000E-02  1.0000E-02  1.0000E-02  1.0000E-02  1.0000E-02
       1.0000E-02  1.0000E-02  1.0000E-02  1.0000E-02  1.0000E-02  1.0000E-02  1.0000E-02  1.0000E-02  1.0000E-02  1.0000E-02
       1.0000E-02  1.0000E-02  1.0000E-02  1.0000E-02  1.0000E-02  1.0000E-02  1.0000E-02  1.0000E-02  1.0000E-02  1.0000E-02
       1.0000E-02  1.0000E-02  1.0000E-02  1.0000E-02  1.0000E-02  1.0000E-02  1.0000E-02  1.0000E-02  1.0000E-02  1.0000E-02
       1.0000E-02  1.0000E-02  1.0000E-02   1.660       1.467      1.0000E-02  1.0000E-02  1.0000E-02  1.0000E-02  1.0000E-02
       1.0000E-02  1.0000E-02  1.0000E-02  1.0000E-02  1.0000E-02  1.0000E-02  1.0000E-02  1.0000E-02  1.0000E-02  1.0000E-02
       1.0000E-02  1.0000E-02  1.0000E-02  1.0000E-02  1.0000E-02  1.0000E-02  1.0000E-02  1.0000E-02  1.0000E-02  1.0000E-02
       1.0000E-02  1.0000E-02  1.0000E-02  1.0000E-02  1.0000E-02  1.0000E-02  1.0000E-02  1.0000E-02  1.0000E-02  1.0000E-02
       1.0000E-02  1.0000E-02  1.0000E-02  1.0000E-02  1.0000E-02  1.0000E-02  1.0000E-02  1.0000E-02  1.0000E-02  1.0000E-02
   3   1.0000E-02  1.0000E-02  1.0000E-02  1.0000E-02  1.0000E-02  1.0000E-02  1.0000E-02  1.0000E-02  1.0000E-02  1.0000E-02
       1.0000E-02  1.0000E-02  1.0000E-02  1.0000E-02  1.0000E-02  1.0000E-02  1.0000E-02  1.0000E-02  1.0000E-02  1.0000E-02
       1.0000E-02  1.0000E-02  1.0000E-02  1.0000E-02  1.0000E-02  1.0000E-02  1.0000E-02  1.0000E-02  1.0000E-02  1.0000E-02
       1.0000E-02  1.0000E-02  1.0000E-02  1.0000E-02  1.0000E-02  1.0000E-02  1.0000E-02  1.0000E-02  1.0000E-02  1.0000E-02
       1.0000E-02  1.0000E-02  1.0000E-02  1.0000E-02  1.0000E-02  1.0000E-02  1.0000E-02  1.0000E-02  1.0000E-02  1.0000E-02
       1.0000E-02  1.0000E-02  1.0000E-02  1.0000E-02  1.0000E-02  1.0000E-02  1.0000E-02  1.0000E-02  1.0000E-02  1.0000E-02
       1.0000E-02  1.0000E-02  1.0000E-02  1.0000E-02  1.0000E-02  1.0000E-02  1.0000E-02  1.0000E-02  1.0000E-02  1.0000E-02
       1.0000E-02  1.0000E-02  1.0000E-02  1.0000E-02  1.0000E-02  1.0000E-02  1.0000E-02  1.0000E-02  1.0000E-02  1.0000E-02
       1.0000E-02  1.0000E-02  1.0000E-02  1.0000E-02  1.0000E-02  1.0000E-02  1.0000E-02  1.0000E-02  1.0000E-02  1.0000E-02
       1.0000E-02  1.0000E-02  1.0000E-02  1.0000E-02  1.0000E-02  1.0000E-02  1.0000E-02  1.0000E-02  1.0000E-02  1.0000E-02
       1.0000E-02   3.395       5.214       4.045       1.997      1.0000E-02  1.0000E-02  1.0000E-02  1.0000E-02  1.0000E-02
       1.0000E-02  1.0000E-02  1.0000E-02  1.0000E-02  1.0000E-02  1.0000E-02  1.0000E-02  1.0000E-02  1.0000E-02  1.0000E-02
       1.0000E-02  1.0000E-02  1.0000E-02  1.0000E-02  1.0000E-02  1.0000E-02  1.0000E-02  1.0000E-02  1.0000E-02  1.0000E-02
       1.0000E-02  1.0000E-02  1.0000E-02  1.0000E-02  1.0000E-02  1.0000E-02  1.0000E-02  1.0000E-02  1.0000E-02  1.0000E-02
       1.0000E-02  1.0000E-02  1.0000E-02  1.0000E-02  1.0000E-02  1.0000E-02  1.0000E-02  1.0000E-02  1.0000E-02  1.0000E-02
   4   1.0000E-02  1.0000E-02  1.0000E-02  1.0000E-02  1.0000E-02  1.0000E-02  1.0000E-02  1.0000E-02  1.0000E-02  1.0000E-02
       1.0000E-02  1.0000E-02  1.0000E-02  1.0000E-02  1.0000E-02  1.0000E-02  1.0000E-02  1.0000E-02  1.0000E-02  1.0000E-02
       1.0000E-02  1.0000E-02  1.0000E-02  1.0000E-02  1.0000E-02  1.0000E-02  1.0000E-02  1.0000E-02  1.0000E-02  1.0000E-02
       1.0000E-02  1.0000E-02  1.0000E-02  1.0000E-02  1.0000E-02  1.0000E-02  1.0000E-02  1.0000E-02  1.0000E-02  1.0000E-02
       1.0000E-02  1.0000E-02  1.0000E-02  1.0000E-02  1.0000E-02  1.0000E-02  1.0000E-02  1.0000E-02  1.0000E-02  1.0000E-02
       1.0000E-02  1.0000E-02  1.0000E-02  1.0000E-02  1.0000E-02  1.0000E-02  1.0000E-02  1.0000E-02  1.0000E-02  1.0000E-02
       1.0000E-02  1.0000E-02  1.0000E-02  1.0000E-02  1.0000E-02  1.0000E-02  1.0000E-02  1.0000E-02  1.0000E-02  1.0000E-02
       1.0000E-02  1.0000E-02  1.0000E-02  1.0000E-02  1.0000E-02  1.0000E-02  1.0000E-02  1.0000E-02  1.0000E-02  1.0000E-02
       1.0000E-02  1.0000E-02  1.0000E-02  1.0000E-02  1.0000E-02  1.0000E-02  1.0000E-02  1.0000E-02  1.0000E-02  1.0000E-02
       1.0000E-02  1.0000E-02  1.0000E-02  1.0000E-02  1.0000E-02  1.0000E-02  1.0000E-02  1.0000E-02  1.0000E-02  1.0000E-02
        6.085       10.21       9.580       6.413       2.914      1.1991E-02  1.0000E-02  1.0000E-02  1.0000E-02  1.0000E-02
       1.0000E-02  1.0000E-02  1.0000E-02  1.0000E-02  1.0000E-02  1.0000E-02  1.0000E-02  1.0000E-02  1.0000E-02  1.0000E-02
       1.0000E-02  1.0000E-02  1.0000E-02  1.0000E-02  1.0000E-02  1.0000E-02  1.0000E-02  1.0000E-02  1.0000E-02  1.0000E-02
       1.0000E-02  1.0000E-02  1.0000E-02  1.0000E-02  1.0000E-02  1.0000E-02  1.0000E-02  1.0000E-02  1.0000E-02  1.0000E-02
       1.0000E-02  1.0000E-02  1.0000E-02  1.0000E-02  1.0000E-02  1.0000E-02  1.0000E-02  1.0000E-02  1.0000E-02  1.0000E-02
   5   1.0000E-02  1.0000E-02  1.0000E-02  1.0000E-02  1.0000E-02  1.0000E-02  1.0000E-02  1.0000E-02  1.0000E-02  1.0000E-02
       1.0000E-02  1.0000E-02  1.0000E-02  1.0000E-02  1.0000E-02  1.0000E-02  1.0000E-02  1.0000E-02  1.0000E-02  1.0000E-02
       1.0000E-02  1.0000E-02  1.0000E-02  1.0000E-02  1.0000E-02  1.0000E-02  1.0000E-02  1.0000E-02  1.0000E-02  1.0000E-02
       1.0000E-02  1.0000E-02  1.0000E-02  1.0000E-02  1.0000E-02  1.0000E-02  1.0000E-02  1.0000E-02  1.0000E-02  1.0000E-02
       1.0000E-02  1.0000E-02  1.0000E-02  1.0000E-02  1.0000E-02  1.0000E-02  1.0000E-02  1.0000E-02  1.0000E-02  1.0000E-02
       1.0000E-02  1.0000E-02  1.0000E-02  1.0000E-02  1.0000E-02  1.0000E-02  1.0000E-02  1.0000E-02  1.0000E-02  1.0000E-02
       1.0000E-02  1.0000E-02  1.0000E-02  1.0000E-02  1.0000E-02  1.0000E-02  1.0000E-02  1.0000E-02  1.0000E-02  1.0000E-02
       1.0000E-02  1.0000E-02  1.0000E-02  1.0000E-02  1.0000E-02  1.0000E-02  1.0000E-02  1.0000E-02  1.0000E-02  1.0000E-02
       1.0000E-02  1.0000E-02  1.0000E-02  1.0000E-02  1.0000E-02  1.0000E-02  1.0000E-02  1.0000E-02  1.0000E-02  1.0000E-02
       1.0000E-02  1.0000E-02  1.0000E-02  1.0000E-02  1.0000E-02  1.0000E-02  1.0000E-02  1.0000E-02   5.794       12.22    
        15.70       16.09       13.02       8.226       4.112      0.8467      1.0000E-02  1.0000E-02  1.0000E-02  1.0000E-02
       1.0000E-02  1.0000E-02  1.0000E-02  1.0000E-02  1.0000E-02  1.0000E-02  1.0000E-02  1.0000E-02  1.0000E-02  1.0000E-02
       1.0000E-02  1.0000E-02  1.0000E-02  1.0000E-02  1.0000E-02  1.0000E-02  1.0000E-02  1.0000E-02  1.0000E-02  1.0000E-02
       1.0000E-02  1.0000E-02  1.0000E-02  1.0000E-02  1.0000E-02  1.0000E-02  1.0000E-02  1.0000E-02  1.0000E-02  1.0000E-02
       1.0000E-02  1.0000E-02  1.0000E-02  1.0000E-02  1.0000E-02  1.0000E-02  1.0000E-02  1.0000E-02  1.0000E-02  1.0000E-02
   6   1.0000E-02  1.0000E-02  1.0000E-02  1.0000E-02  1.0000E-02  1.0000E-02  1.0000E-02  1.0000E-02  1.0000E-02  1.0000E-02
       1.0000E-02  1.0000E-02  1.0000E-02  1.0000E-02  1.0000E-02  1.0000E-02  1.0000E-02  1.0000E-02  1.0000E-02  1.0000E-02
       1.0000E-02  1.0000E-02  1.0000E-02  1.0000E-02  1.0000E-02  1.0000E-02  1.0000E-02  1.0000E-02  1.0000E-02  1.0000E-02
       1.0000E-02  1.0000E-02  1.0000E-02  1.0000E-02  1.0000E-02  1.0000E-02  1.0000E-02  1.0000E-02  1.0000E-02  1.0000E-02
       1.0000E-02  1.0000E-02  1.0000E-02  1.0000E-02  1.0000E-02  1.0000E-02  1.0000E-02  1.0000E-02  1.0000E-02  1.0000E-02
       1.0000E-02  1.0000E-02  1.0000E-02  1.0000E-02  1.0000E-02  1.0000E-02  1.0000E-02  1.0000E-02  1.0000E-02  1.0000E-02
       1.0000E-02  1.0000E-02  1.0000E-02  1.0000E-02  1.0000E-02  1.0000E-02  1.0000E-02  1.0000E-02  1.0000E-02  1.0000E-02
       1.0000E-02  1.0000E-02  1.0000E-02  1.0000E-02  1.0000E-02  1.0000E-02  1.0000E-02  1.0000E-02  1.0000E-02  1.0000E-02
       1.0000E-02  1.0000E-02  1.0000E-02  1.0000E-02  1.0000E-02  1.0000E-02  1.0000E-02  1.0000E-02  1.0000E-02  1.0000E-02
       1.0000E-02  1.0000E-02  1.0000E-02  1.0000E-02  1.0000E-02  1.0000E-02  1.0000E-02   6.987       16.48       21.22    
        22.35       20.24       15.17       8.285       2.409      2.2014E-02  1.0000E-02  1.0000E-02  1.0000E-02  1.0000E-02
       1.0000E-02  1.0000E-02  1.0000E-02  1.0000E-02  1.0000E-02  1.0000E-02  1.0000E-02  1.0000E-02  1.0000E-02  1.0000E-02
       1.0000E-02  1.0000E-02  1.0000E-02  1.0000E-02  1.0000E-02  1.0000E-02  1.0000E-02  1.0000E-02  1.0000E-02  1.0000E-02
       1.0000E-02  1.0000E-02  1.0000E-02  1.0000E-02  1.0000E-02  1.0000E-02  1.0000E-02  1.0000E-02  1.0000E-02  1.0000E-02
       1.0000E-02  1.0000E-02  1.0000E-02  1.0000E-02  1.0000E-02  1.0000E-02  1.0000E-02  1.0000E-02  1.0000E-02  1.0000E-02
   7   1.0000E-02  1.0000E-02  1.0000E-02  1.0000E-02  1.0000E-02  1.0000E-02  1.0000E-02  1.0000E-02  1.0000E-02  1.0000E-02
       1.0000E-02  1.0000E-02  1.0000E-02  1.0000E-02  1.0000E-02  1.0000E-02  1.0000E-02  1.0000E-02  1.0000E-02  1.0000E-02
       1.0000E-02  1.0000E-02  1.0000E-02  1.0000E-02  1.0000E-02  1.0000E-02  1.0000E-02  1.0000E-02  1.0000E-02  1.0000E-02
       1.0000E-02  1.0000E-02  1.0000E-02  1.0000E-02  1.0000E-02  1.0000E-02  1.0000E-02  1.0000E-02  1.0000E-02  1.0000E-02
       1.0000E-02  1.0000E-02  1.0000E-02  1.0000E-02  1.0000E-02  1.0000E-02  1.0000E-02  1.0000E-02  1.0000E-02  1.0000E-02
       1.0000E-02  1.0000E-02  1.0000E-02  1.0000E-02  1.0000E-02  1.0000E-02  1.0000E-02  1.0000E-02  1.0000E-02  1.0000E-02
       1.0000E-02  1.0000E-02  1.0000E-02  1.0000E-02  1.0000E-02  1.0000E-02  1.0000E-02  1.0000E-02  1.0000E-02  1.0000E-02
       1.0000E-02  1.0000E-02  1.0000E-02  1.0000E-02  1.0000E-02  1.0000E-02  1.0000E-02  1.0000E-02  1.0000E-02  1.0000E-02
       1.0000E-02  1.0000E-02  1.0000E-02  1.0000E-02  1.0000E-02  1.0000E-02  1.0000E-02  1.0000E-02  1.0000E-02  1.0000E-02
       1.0000E-02  1.0000E-02  1.0000E-02  1.0000E-02  1.0000E-02  1.0000E-02   9.839       19.37       25.19       27.43    
        26.71       22.84       15.60       5.834      5.2672E-02  2.2364E-02  1.0000E-02  1.0000E-02  1.0000E-02  1.0000E-02
       1.0000E-02  1.0000E-02  1.0000E-02  1.0000E-02  1.0000E-02  1.0000E-02  1.0000E-02  1.0000E-02  1.0000E-02  1.0000E-02
       1.0000E-02  1.0000E-02  1.0000E-02  1.0000E-02  1.0000E-02  1.0000E-02  1.0000E-02  1.0000E-02  1.0000E-02  1.0000E-02
       1.0000E-02  1.0000E-02  1.0000E-02  1.0000E-02  1.0000E-02  1.0000E-02  1.0000E-02  1.0000E-02  1.0000E-02  1.0000E-02
       1.0000E-02  1.0000E-02  1.0000E-02  1.0000E-02  1.0000E-02  1.0000E-02  1.0000E-02  1.0000E-02  1.0000E-02  1.0000E-02
   8   1.0000E-02  1.0000E-02  1.0000E-02  1.0000E-02  1.0000E-02  1.0000E-02  1.0000E-02  1.0000E-02  1.0000E-02  1.0000E-02
       1.0000E-02  1.0000E-02  1.0000E-02  1.0000E-02  1.0000E-02  1.0000E-02  1.0000E-02  1.0000E-02  1.0000E-02  1.0000E-02
       1.0000E-02  1.0000E-02  1.0000E-02  1.0000E-02  1.0000E-02  1.0000E-02  1.0000E-02  1.0000E-02  1.0000E-02  1.0000E-02
       1.0000E-02  1.0000E-02  1.0000E-02  1.0000E-02  1.0000E-02  1.0000E-02  1.0000E-02  1.0000E-02  1.0000E-02  1.0000E-02
       1.0000E-02  1.0000E-02  1.0000E-02  1.0000E-02  1.0000E-02  1.0000E-02  1.0000E-02  1.0000E-02  1.0000E-02  1.0000E-02
       1.0000E-02  1.0000E-02  1.0000E-02  1.0000E-02  1.0000E-02  1.0000E-02  1.0000E-02  1.0000E-02  1.0000E-02  1.0000E-02
       1.0000E-02  1.0000E-02  1.0000E-02  1.0000E-02  1.0000E-02  1.0000E-02  1.0000E-02  1.0000E-02  1.0000E-02  1.0000E-02
       1.0000E-02  1.0000E-02  1.0000E-02  1.0000E-02  1.0000E-02  1.0000E-02  1.0000E-02  1.0000E-02  1.0000E-02  1.0000E-02
       1.0000E-02  1.0000E-02  1.0000E-02  1.0000E-02  1.0000E-02  1.0000E-02  1.0000E-02  1.0000E-02  1.0000E-02  1.0000E-02
       1.0000E-02  1.0000E-02  1.0000E-02  1.0000E-02  1.0000E-02   13.70       22.98       29.01       31.83       31.80    
        29.34       23.72       14.41       3.666      3.6520E-02  1.4701E-02  1.0000E-02  1.0000E-02  1.0000E-02  1.0000E-02
       1.0000E-02  1.0000E-02  1.0000E-02  1.0000E-02  1.0000E-02  1.0000E-02  1.0000E-02  1.0000E-02  1.0000E-02  1.0000E-02
       1.0000E-02  1.0000E-02  1.0000E-02  1.0000E-02  1.0000E-02  1.0000E-02  1.0000E-02  1.0000E-02  1.0000E-02  1.0000E-02
       1.0000E-02  1.0000E-02  1.0000E-02  1.0000E-02  1.0000E-02  1.0000E-02  1.0000E-02  1.0000E-02  1.0000E-02  1.0000E-02
       1.0000E-02  1.0000E-02  1.0000E-02  1.0000E-02  1.0000E-02  1.0000E-02  1.0000E-02  1.0000E-02  1.0000E-02  1.0000E-02
   9   1.0000E-02  1.0000E-02  1.0000E-02  1.0000E-02  1.0000E-02  1.0000E-02  1.0000E-02  1.0000E-02  1.0000E-02  1.0000E-02
       1.0000E-02  1.0000E-02  1.0000E-02  1.0000E-02  1.0000E-02  1.0000E-02  1.0000E-02  1.0000E-02  1.0000E-02  1.0000E-02
       1.0000E-02  1.0000E-02  1.0000E-02  1.0000E-02  1.0000E-02  1.0000E-02  1.0000E-02  1.0000E-02  1.0000E-02  1.0000E-02
       1.0000E-02  1.0000E-02  1.0000E-02  1.0000E-02  1.0000E-02  1.0000E-02  1.0000E-02  1.0000E-02  1.0000E-02  1.0000E-02
       1.0000E-02  1.0000E-02  1.0000E-02  1.0000E-02  1.0000E-02  1.0000E-02  1.0000E-02  1.0000E-02  1.0000E-02  1.0000E-02
       1.0000E-02  1.0000E-02  1.0000E-02  1.0000E-02  1.0000E-02  1.0000E-02  1.0000E-02  1.0000E-02  1.0000E-02  1.0000E-02
       1.0000E-02  1.0000E-02  1.0000E-02  1.0000E-02  1.0000E-02  1.0000E-02  1.0000E-02  1.0000E-02  1.0000E-02  1.0000E-02
       1.0000E-02  1.0000E-02  1.0000E-02  1.0000E-02  1.0000E-02  1.0000E-02  1.0000E-02  1.0000E-02  1.0000E-02  1.0000E-02
       1.0000E-02  1.0000E-02  1.0000E-02  1.0000E-02  1.0000E-02  1.0000E-02  1.0000E-02  1.0000E-02  1.0000E-02  1.0000E-02
       1.0000E-02  1.0000E-02  1.0000E-02   7.320       16.61       25.68       32.25       35.62       36.19       34.35    
        29.89       22.04       9.589      8.1669E-02  3.4859E-02  1.0000E-02  1.0000E-02  1.0000E-02  1.0000E-02  1.0000E-02
       1.0000E-02  1.0000E-02  1.0000E-02  1.0000E-02  1.0000E-02  1.0000E-02  1.0000E-02  1.0000E-02  1.0000E-02  1.0000E-02
       1.0000E-02  1.0000E-02  1.0000E-02  1.0000E-02  1.0000E-02  1.0000E-02  1.0000E-02  1.0000E-02  1.0000E-02  1.0000E-02
       1.0000E-02  1.0000E-02  1.0000E-02  1.0000E-02  1.0000E-02  1.0000E-02  1.0000E-02  1.0000E-02  1.0000E-02  1.0000E-02
       1.0000E-02  1.0000E-02  1.0000E-02  1.0000E-02  1.0000E-02  1.0000E-02  1.0000E-02  1.0000E-02  1.0000E-02  1.0000E-02
  10   1.0000E-02  1.0000E-02  1.0000E-02  1.0000E-02  1.0000E-02  1.0000E-02  1.0000E-02  1.0000E-02  1.0000E-02  1.0000E-02
       1.0000E-02  1.0000E-02  1.0000E-02  1.0000E-02  1.0000E-02  1.0000E-02  1.0000E-02  1.0000E-02  1.0000E-02  1.0000E-02
       1.0000E-02  1.0000E-02  1.0000E-02  1.0000E-02  1.0000E-02  1.0000E-02  1.0000E-02  1.0000E-02  1.0000E-02  1.0000E-02
       1.0000E-02  1.0000E-02  1.0000E-02  1.0000E-02  1.0000E-02  1.0000E-02  1.0000E-02  1.0000E-02  1.0000E-02  1.0000E-02
       1.0000E-02  1.0000E-02  1.0000E-02  1.0000E-02  1.0000E-02  1.0000E-02  1.0000E-02  1.0000E-02  1.0000E-02  1.0000E-02
       1.0000E-02  1.0000E-02  1.0000E-02  1.0000E-02  1.0000E-02  1.0000E-02  1.0000E-02  1.0000E-02  1.0000E-02  1.0000E-02
       1.0000E-02  1.0000E-02  1.0000E-02  1.0000E-02  1.0000E-02  1.0000E-02  1.0000E-02  1.0000E-02  1.0000E-02  1.0000E-02
       1.0000E-02  1.0000E-02  1.0000E-02  1.0000E-02  1.0000E-02  1.0000E-02  1.0000E-02  1.0000E-02  1.0000E-02  1.0000E-02
       1.0000E-02  1.0000E-02  1.0000E-02  1.0000E-02  1.0000E-02  1.0000E-02  1.0000E-02  1.0000E-02  1.0000E-02  1.0000E-02
       1.0000E-02  1.0000E-02   8.114       19.76       27.71       34.03       37.95       39.33       38.37       34.81    
        28.17       18.61       6.817      5.7980E-02  2.4242E-02  1.0000E-02  1.0000E-02  1.0000E-02  1.0000E-02  1.0000E-02
       1.0000E-02  1.0000E-02  1.0000E-02  1.0000E-02  1.0000E-02  1.0000E-02  1.0000E-02  1.0000E-02  1.0000E-02  1.0000E-02
       1.0000E-02  1.0000E-02  1.0000E-02  1.0000E-02  1.0000E-02  1.0000E-02  1.0000E-02  1.0000E-02  1.0000E-02  1.0000E-02
       1.0000E-02  1.0000E-02  1.0000E-02  1.0000E-02  1.0000E-02  1.0000E-02  1.0000E-02  1.0000E-02  1.0000E-02  1.0000E-02
       1.0000E-02  1.0000E-02  1.0000E-02  1.0000E-02  1.0000E-02  1.0000E-02  1.0000E-02  1.0000E-02  1.0000E-02  1.0000E-02
  11   1.0000E-02  1.0000E-02  1.0000E-02  1.0000E-02  1.0000E-02  1.0000E-02  1.0000E-02  1.0000E-02  1.0000E-02  1.0000E-02
       1.0000E-02  1.0000E-02  1.0000E-02  1.0000E-02  1.0000E-02  1.0000E-02  1.0000E-02  1.0000E-02  1.0000E-02  1.0000E-02
       1.0000E-02  1.0000E-02  1.0000E-02  1.0000E-02  1.0000E-02  1.0000E-02  1.0000E-02  1.0000E-02  1.0000E-02  1.0000E-02
       1.0000E-02  1.0000E-02  1.0000E-02  1.0000E-02  1.0000E-02  1.0000E-02  1.0000E-02  1.0000E-02  1.0000E-02  1.0000E-02
       1.0000E-02  1.0000E-02  1.0000E-02  1.0000E-02  1.0000E-02  1.0000E-02  1.0000E-02  1.0000E-02  1.0000E-02  1.0000E-02
       1.0000E-02  1.0000E-02  1.0000E-02  1.0000E-02  1.0000E-02  1.0000E-02  1.0000E-02  1.0000E-02  1.0000E-02  1.0000E-02
       1.0000E-02  1.0000E-02  1.0000E-02  1.0000E-02  1.0000E-02  1.0000E-02  1.0000E-02  1.0000E-02  1.0000E-02  1.0000E-02
       1.0000E-02  1.0000E-02  1.0000E-02  1.0000E-02  1.0000E-02  1.0000E-02  1.0000E-02  1.0000E-02  1.0000E-02  1.0000E-02
       1.0000E-02  1.0000E-02  1.0000E-02  1.0000E-02  1.0000E-02  1.0000E-02  1.0000E-02  1.0000E-02  1.0000E-02  1.0000E-02
       1.0000E-02  1.0000E-02   17.41       27.57       34.14       38.61       40.85       40.77       38.32       32.96    
        24.23       13.41       3.718      3.2465E-02  1.0000E-02  1.0000E-02  1.0000E-02  1.0000E-02  1.0000E-02  1.0000E-02
       1.0000E-02  1.0000E-02  1.0000E-02  1.0000E-02  1.0000E-02  1.0000E-02  1.0000E-02  1.0000E-02  1.0000E-02  1.0000E-02
       1.0000E-02  1.0000E-02  1.0000E-02  1.0000E-02  1.0000E-02  1.0000E-02  1.0000E-02  1.0000E-02  1.0000E-02  1.0000E-02
       1.0000E-02  1.0000E-02  1.0000E-02  1.0000E-02  1.0000E-02  1.0000E-02  1.0000E-02  1.0000E-02  1.0000E-02  1.0000E-02
       1.0000E-02  1.0000E-02  1.0000E-02  1.0000E-02  1.0000E-02  1.0000E-02  1.0000E-02  1.0000E-02  1.0000E-02  1.0000E-02
  12   1.0000E-02  1.0000E-02  1.0000E-02  1.0000E-02  1.0000E-02  1.0000E-02  1.0000E-02  1.0000E-02  1.0000E-02  1.0000E-02
       1.0000E-02  1.0000E-02  1.0000E-02  1.0000E-02  1.0000E-02  1.0000E-02  1.0000E-02  1.0000E-02  1.0000E-02  1.0000E-02
       1.0000E-02  1.0000E-02  1.0000E-02  1.0000E-02  1.0000E-02  1.0000E-02  1.0000E-02  1.0000E-02  1.0000E-02  1.0000E-02
       1.0000E-02  1.0000E-02  1.0000E-02  1.0000E-02  1.0000E-02  1.0000E-02  1.0000E-02  1.0000E-02  1.0000E-02  1.0000E-02
       1.0000E-02  1.0000E-02  1.0000E-02  1.0000E-02  1.0000E-02  1.0000E-02  1.0000E-02  1.0000E-02  1.0000E-02  1.0000E-02
       1.0000E-02  1.0000E-02  1.0000E-02  1.0000E-02  1.0000E-02  1.0000E-02  1.0000E-02  1.0000E-02  1.0000E-02  1.0000E-02
       1.0000E-02  1.0000E-02  1.0000E-02  1.0000E-02  1.0000E-02  1.0000E-02  1.0000E-02  1.0000E-02  1.0000E-02  1.0000E-02
       1.0000E-02  1.0000E-02  1.0000E-02  1.0000E-02  1.0000E-02  1.0000E-02  1.0000E-02  1.0000E-02  1.0000E-02  1.0000E-02
       1.0225E-02  1.0000E-02  1.0000E-02  1.0000E-02  1.0000E-02  1.0000E-02  1.0000E-02  1.0000E-02  1.0000E-02  1.0000E-02
       1.0000E-02   13.43       24.33       31.73       36.88       40.23       41.32       39.86       35.67       28.29    
        17.72       5.459      5.1726E-02  2.2625E-02  1.0000E-02  1.0000E-02  1.0000E-02  1.0000E-02  1.0000E-02  1.0000E-02
       1.0000E-02  1.0000E-02  1.0000E-02  1.0000E-02  1.0000E-02  1.0000E-02  1.0000E-02  1.0000E-02  1.0000E-02  1.0000E-02
       1.0000E-02  1.0000E-02  1.0000E-02  1.0000E-02  1.0000E-02  1.0000E-02  1.0000E-02  1.0000E-02  1.0000E-02  1.0000E-02
       1.0000E-02  1.0000E-02  1.0000E-02  1.0000E-02  1.0000E-02  1.0000E-02  1.0000E-02  1.0000E-02  1.0000E-02  1.0000E-02
       1.0000E-02  1.0000E-02  1.0000E-02  1.0000E-02  1.0000E-02  1.0000E-02  1.0000E-02  1.0000E-02  1.0000E-02  1.0000E-02
  13   1.0000E-02  1.0000E-02  1.0000E-02  1.0000E-02  1.0000E-02  1.0000E-02  1.0000E-02  1.0000E-02  1.0000E-02  1.0000E-02
       1.0000E-02  1.0000E-02  1.0000E-02  1.0000E-02  1.0000E-02  1.0000E-02  1.0000E-02  1.0000E-02  1.0000E-02  1.0000E-02
       1.0000E-02  1.0000E-02  1.0000E-02  1.0000E-02  1.0000E-02  1.0000E-02  1.0000E-02  1.0000E-02  1.0000E-02  1.0000E-02
       1.0000E-02  1.0000E-02  1.0000E-02  1.0000E-02  1.0000E-02  1.0000E-02  1.0000E-02  1.0000E-02  1.0000E-02  1.0000E-02
       1.0000E-02  1.0000E-02  1.0000E-02  1.0000E-02  1.0000E-02  1.0000E-02  1.0000E-02  1.0000E-02  1.0000E-02  1.0000E-02
       1.0000E-02  1.0000E-02  1.0000E-02  1.0000E-02  1.0000E-02  1.0000E-02  1.0000E-02  1.0000E-02  1.0000E-02  1.0000E-02
       1.0000E-02  1.0000E-02  1.0000E-02  1.0000E-02  1.0000E-02  1.0000E-02  1.0000E-02  1.0000E-02  1.0000E-02  1.0000E-02
       1.0000E-02  1.0000E-02  1.0000E-02  1.0000E-02  1.0000E-02  1.0000E-02  1.0000E-02  1.0000E-02  1.0000E-02  1.0000E-02
       1.0000E-02  1.2307E-02  1.0000E-02  1.0000E-02  1.0000E-02  1.0000E-02  1.0000E-02  1.0000E-02  1.0000E-02   4.289    
        11.50       19.94       26.95       32.18       36.27       38.74       39.06       36.44       30.07       20.12    
        7.192      6.8028E-02  3.0963E-02  1.0000E-02  1.0000E-02  1.0000E-02  1.0000E-02  1.0000E-02  1.0000E-02  1.0000E-02
       1.0000E-02  1.0000E-02  1.0000E-02  1.0000E-02  1.0000E-02  1.0000E-02  1.0000E-02  1.0000E-02  1.0000E-02  1.0000E-02
       1.0000E-02  1.0000E-02  1.0000E-02  1.0000E-02  1.0000E-02  1.0000E-02  1.0000E-02  1.0000E-02  1.0000E-02  1.0000E-02
       1.0000E-02  1.0000E-02  1.0000E-02  1.0000E-02  1.0000E-02  1.0000E-02  1.0000E-02  1.0000E-02  1.0000E-02  1.0000E-02
       1.0000E-02  1.0000E-02  1.0000E-02  1.0000E-02  1.0000E-02  1.0000E-02  1.0000E-02  1.0000E-02  1.0000E-02  1.0000E-02
  14   1.0000E-02  1.0000E-02  1.0000E-02  1.0000E-02  1.0000E-02  1.0000E-02  1.0000E-02  1.0000E-02  1.0000E-02  1.0000E-02
       1.0000E-02  1.0000E-02  1.0000E-02  1.0000E-02  1.0000E-02  1.0000E-02  1.0000E-02  1.0000E-02  1.0000E-02  1.0000E-02
       1.0000E-02  1.0000E-02  1.0000E-02  1.0000E-02  1.0000E-02  1.0000E-02  1.0000E-02  1.0000E-02  1.0000E-02  1.0000E-02
       1.0000E-02  1.0000E-02  1.0000E-02  1.0000E-02  1.0000E-02  1.0000E-02  1.0000E-02  1.0000E-02  1.0000E-02  1.0000E-02
       1.0000E-02  1.0000E-02  1.0000E-02  1.0000E-02  1.0000E-02  1.0000E-02  1.0000E-02  1.0000E-02  1.0000E-02  1.0000E-02
       1.0000E-02  1.0000E-02  1.0000E-02  1.0000E-02  1.0000E-02  1.0000E-02  1.0000E-02  1.0000E-02  1.0000E-02  1.0000E-02
       1.0000E-02  1.0000E-02  1.0000E-02  1.0000E-02  1.0000E-02  1.0000E-02  1.0000E-02  1.0000E-02  1.0000E-02  1.0000E-02
       1.0000E-02  1.0000E-02  1.0000E-02  1.0000E-02  1.0000E-02  1.0000E-02  1.0000E-02  1.0000E-02  1.0000E-02  1.0000E-02
       4.0248E-02  3.5152E-02  1.0000E-02  1.0000E-02  1.0000E-02  1.0000E-02  1.0000E-02  9.2240E-02  8.6607E-02   7.421    
        15.31       21.13       25.19       27.86       31.41       33.53       33.58       29.97       20.94       7.657    
       8.3871E-02  3.8807E-02  1.5659E-02  1.0000E-02  1.0000E-02  1.0000E-02  1.0000E-02  1.0000E-02  1.0000E-02  1.0000E-02
       1.0000E-02  1.0000E-02  1.0000E-02  1.0000E-02  1.0000E-02  1.0000E-02  1.0000E-02  1.0000E-02  1.0000E-02  1.0000E-02
       1.0000E-02  1.0000E-02  1.0000E-02  1.0000E-02  1.0000E-02  1.0000E-02  1.0000E-02  1.0000E-02  1.0000E-02  1.0000E-02
       1.0000E-02  1.0000E-02  1.0000E-02  1.0000E-02  1.0000E-02  1.0000E-02  1.0000E-02  1.0000E-02  1.0000E-02  1.0000E-02
       1.0000E-02  1.0000E-02  1.0000E-02  1.0000E-02  1.0000E-02  1.0000E-02  1.0000E-02  1.0000E-02  1.0000E-02  1.0000E-02
  15   1.0000E-02  1.0000E-02  1.0000E-02  1.0000E-02  1.0000E-02  1.0000E-02  1.0000E-02  1.0000E-02  1.0000E-02  1.0000E-02
       1.0000E-02  1.0000E-02  1.0000E-02  1.0000E-02  1.0000E-02  1.0000E-02  1.0000E-02  1.0000E-02  1.0000E-02  1.0000E-02
       1.0000E-02  1.0000E-02  1.0000E-02  1.0000E-02  1.0000E-02  1.0000E-02  1.0000E-02  1.0000E-02  1.0000E-02  1.0000E-02
       1.0000E-02  1.0000E-02  1.0000E-02  1.0000E-02  1.0000E-02  1.0000E-02  1.0000E-02  1.0000E-02  1.0000E-02  1.0000E-02
       1.0000E-02  1.0000E-02  1.0000E-02  1.0000E-02  1.0000E-02  1.0000E-02  1.0000E-02  1.0000E-02  1.0000E-02  1.0000E-02
       1.0000E-02  1.0000E-02  1.0000E-02  1.0000E-02  1.0000E-02  1.0000E-02  1.0000E-02  1.0000E-02  1.0000E-02  1.0000E-02
       1.0000E-02  1.0000E-02  1.0000E-02  1.0000E-02  1.0000E-02  1.0000E-02  1.0000E-02  1.0000E-02  1.0000E-02  1.0000E-02
       1.0000E-02  1.0000E-02  1.0000E-02  1.0000E-02  1.0000E-02  1.0000E-02  1.0000E-02  1.0000E-02  1.0000E-02  1.0000E-02
       9.0734E-02  0.1145      0.1021      0.1056      0.1179      0.1464      0.2162      0.2827       3.210       10.17    
        15.53       18.47       18.36       15.63       21.57       24.39       24.17       19.46       7.916      9.0543E-02
       4.9939E-02  1.8072E-02  1.0000E-02  1.0000E-02  1.0000E-02  1.0000E-02  1.0000E-02  1.0000E-02  1.0000E-02  1.0000E-02
       1.0000E-02  1.0000E-02  1.0000E-02  1.0000E-02  1.0000E-02  1.0000E-02  1.0000E-02  1.0000E-02  1.0000E-02  1.0000E-02
       1.0000E-02  1.0000E-02  1.0000E-02  1.0000E-02  1.0000E-02  1.0000E-02  1.0000E-02  1.0109E-02  1.0000E-02  1.0000E-02
       1.0000E-02  1.0000E-02  1.0000E-02  1.0000E-02  1.0000E-02  1.0000E-02  1.0000E-02  1.0000E-02  1.0000E-02  1.0000E-02
       1.0000E-02  1.0000E-02  1.0000E-02  1.0000E-02  1.0000E-02  1.0000E-02  1.0000E-02  1.0000E-02  1.0000E-02  1.0000E-02
  16   1.0000E-02  1.0000E-02  1.0000E-02  1.0000E-02  1.0000E-02  1.0000E-02  1.0000E-02  1.0000E-02  1.0000E-02  1.0000E-02
       1.0000E-02  1.0000E-02  1.0000E-02  1.0000E-02  1.0000E-02  1.0000E-02  1.0000E-02  1.0000E-02  1.0000E-02  1.0000E-02
       1.0000E-02  1.0000E-02  1.0000E-02  1.0000E-02  1.0000E-02  1.0000E-02  1.0000E-02  1.0000E-02  1.0000E-02  1.0000E-02
       1.0000E-02  1.0000E-02  1.0000E-02  1.0000E-02  1.0000E-02  1.0000E-02  1.0000E-02  1.0000E-02  1.0000E-02  1.0000E-02
       1.0000E-02  1.0000E-02  1.0000E-02  1.0000E-02  1.0000E-02  1.0000E-02  1.0000E-02  1.0000E-02  1.0000E-02  1.0000E-02
       1.0000E-02  1.0000E-02  1.0000E-02  1.0000E-02  1.0000E-02  1.0000E-02  1.0000E-02  1.0000E-02  1.0000E-02  1.0000E-02
       1.0000E-02  1.0000E-02  1.0000E-02  1.0000E-02  1.0000E-02  1.0000E-02  1.0000E-02  1.0000E-02  1.0000E-02  1.0000E-02
       1.0000E-02  1.0000E-02  1.0000E-02  1.0000E-02  1.0000E-02  1.0000E-02  1.0000E-02  1.0000E-02  1.0000E-02  7.5220E-02
       0.1673      0.2179      0.2413      0.2597      0.2828      0.3200      0.3785      0.4604      0.5968       7.029    
        12.55       12.92       7.282       1.487       7.674       10.87       10.28       6.027      9.9174E-02  5.0264E-02
       2.5580E-02  1.0000E-02  1.0000E-02  1.0000E-02  1.0000E-02  1.0000E-02  1.0000E-02  1.0000E-02  1.0000E-02  1.0000E-02
       1.0000E-02  1.0000E-02  1.0000E-02  1.0000E-02  1.0000E-02  1.0000E-02  1.0000E-02  1.0000E-02  1.0000E-02  1.0000E-02
       1.0000E-02  1.0000E-02  1.0000E-02  1.0000E-02  1.0000E-02  1.0000E-02  1.0000E-02  1.1891E-02  1.0000E-02  1.0000E-02
       1.0000E-02  1.0000E-02  1.0000E-02  1.0000E-02  1.0000E-02  1.0000E-02  1.0000E-02  1.0000E-02  1.0000E-02  1.0000E-02
       1.0000E-02  1.0000E-02  1.0000E-02  1.0000E-02  1.0000E-02  1.0000E-02  1.0000E-02  1.0000E-02  1.0000E-02  1.0000E-02
  17   1.0000E-02  1.0000E-02  1.0000E-02  1.0000E-02  1.0000E-02  1.0000E-02  1.0000E-02  1.0000E-02  1.0000E-02  1.0000E-02
       1.0000E-02  1.0000E-02  1.0000E-02  1.0000E-02  1.0000E-02  1.0000E-02  1.0000E-02  1.0000E-02  1.0000E-02  1.0000E-02
       1.0000E-02  1.0000E-02  1.0000E-02  1.0000E-02  1.0000E-02  1.0000E-02  1.0000E-02  1.0000E-02  1.0000E-02  1.0000E-02
       1.0000E-02  1.0000E-02  1.0000E-02  1.0000E-02  1.0000E-02  1.0000E-02  1.0000E-02  1.0000E-02  1.0000E-02  1.0000E-02
       1.0000E-02  1.0000E-02  1.0000E-02  1.0000E-02  1.0000E-02  1.0000E-02  1.0000E-02  1.0000E-02  1.0000E-02  1.0000E-02
       1.0000E-02  1.0000E-02  1.0000E-02  1.0000E-02  1.0000E-02  1.0000E-02  1.0000E-02  1.0000E-02  1.0000E-02  1.0000E-02
       1.0000E-02  1.0000E-02  1.0000E-02  1.0000E-02  1.0000E-02  1.0000E-02  1.0000E-02  1.0000E-02  1.0000E-02  1.0000E-02
       1.0000E-02  1.0000E-02  1.0000E-02  1.0000E-02  1.0000E-02  1.0000E-02  1.0000E-02  1.0000E-02  1.0000E-02  0.1329    
       0.2485      0.3224      0.3637      0.3870      0.4044      0.4338      0.4782      0.5375      0.6207       5.801    
        9.252       7.154       1.444       1.341       1.096      0.8227      0.5327      0.2644      7.4214E-02  1.0000E-02
       1.0000E-02  1.0000E-02  1.0000E-02  1.0000E-02  1.0000E-02  1.0000E-02  1.0000E-02  1.0000E-02  1.0000E-02  1.0000E-02
       1.0000E-02  1.0000E-02  1.0000E-02  1.0000E-02  1.0000E-02  1.0000E-02  1.0000E-02  1.0000E-02  1.0000E-02  1.0000E-02
       1.0000E-02  1.0000E-02  1.0000E-02  1.0000E-02  1.0000E-02  1.0000E-02  2.2574E-02  2.0122E-02  1.0000E-02  1.0000E-02
       1.0000E-02  1.0000E-02  1.0000E-02  1.0000E-02  1.0000E-02  1.0000E-02  1.0000E-02  1.0000E-02  1.0000E-02  1.0000E-02
       1.0000E-02  1.0000E-02  1.0000E-02  1.0000E-02  1.0000E-02  1.0000E-02  1.0000E-02  1.0000E-02  1.0000E-02  1.0000E-02
  18   1.0000E-02  1.0000E-02  1.0000E-02  1.0000E-02  1.0000E-02  1.0000E-02  1.0000E-02  1.0000E-02  1.0000E-02  1.0000E-02
       1.0000E-02  1.0000E-02  1.0000E-02  1.0000E-02  1.0000E-02  1.0000E-02  1.0000E-02  1.0000E-02  1.0000E-02  1.0000E-02
       1.0000E-02  1.0000E-02  1.0000E-02  1.0000E-02  1.0000E-02  1.0000E-02  1.0000E-02  1.0000E-02  1.0000E-02  1.0000E-02
       1.0000E-02  1.0000E-02  1.0000E-02  1.0000E-02  1.0000E-02  1.0000E-02  1.0000E-02  1.0000E-02  1.0000E-02  1.0000E-02
       1.0000E-02  1.0000E-02  1.0000E-02  1.0000E-02  1.0000E-02  1.0000E-02  1.0000E-02  1.0000E-02  1.0000E-02  1.0000E-02
       1.0000E-02  1.0000E-02  1.0000E-02  1.0000E-02  1.0000E-02  1.0000E-02  1.0000E-02  1.0000E-02  1.0000E-02  1.0000E-02
       1.0000E-02  1.0000E-02  1.0000E-02  1.0000E-02  1.0000E-02  1.0000E-02  1.0000E-02  1.0000E-02  1.0000E-02  1.0000E-02
       1.7873E-02  1.0000E-02  1.0000E-02  1.0000E-02  1.0000E-02  1.0000E-02  1.0000E-02  1.0000E-02  1.0000E-02  0.1667    
       0.3334      0.4258      0.4721      0.4854      0.4815      0.5021      0.5328       3.025       4.357       6.531    
        6.072       4.444       1.470       1.315       1.063      0.7618      0.4444      0.1545      1.0000E-02  1.0000E-02
       1.0000E-02  1.0000E-02  1.0000E-02  1.0000E-02  1.0000E-02  1.0000E-02  1.0000E-02  1.0000E-02  1.0000E-02  1.0000E-02
       1.0000E-02  1.0000E-02  1.0000E-02  1.0000E-02  1.0000E-02  1.0000E-02  1.0000E-02  1.0000E-02  1.0000E-02  1.0000E-02
       1.0000E-02  1.0000E-02  1.0000E-02  1.0000E-02  1.0000E-02  1.0000E-02  5.2494E-02  3.7860E-02  1.3107E-02  1.0000E-02
       1.0000E-02  1.0000E-02  1.0000E-02  1.0000E-02  1.0000E-02  1.0000E-02  1.0000E-02  1.0000E-02  1.0000E-02  1.0000E-02
       1.0000E-02  1.0000E-02  1.0000E-02  1.0000E-02  1.0000E-02  1.0000E-02  1.0000E-02  1.0000E-02  1.0000E-02  1.0000E-02
  19   1.0000E-02  1.0000E-02  1.0000E-02  1.0000E-02  1.0000E-02  1.0000E-02  1.0000E-02  1.0000E-02  1.0000E-02  1.0000E-02
       1.0000E-02  1.0000E-02  1.0000E-02  1.0000E-02  1.0000E-02  1.0000E-02  1.0000E-02  1.0000E-02  1.0000E-02  1.0000E-02
       1.0000E-02  1.0000E-02  1.0000E-02  1.0000E-02  1.0000E-02  1.0000E-02  1.0000E-02  1.0000E-02  1.0000E-02  1.0000E-02
       1.0000E-02  1.0000E-02  1.0000E-02  1.0000E-02  1.0000E-02  1.0000E-02  1.0000E-02  1.0000E-02  1.0000E-02  1.0000E-02
       1.0000E-02  1.0000E-02  1.0000E-02  1.0000E-02  1.0000E-02  1.0000E-02  1.0000E-02  1.0000E-02  1.0000E-02  1.0000E-02
       1.0000E-02  1.0000E-02  1.0000E-02  1.0000E-02  1.0000E-02  1.0000E-02  1.0000E-02  1.0000E-02  1.0000E-02  1.0000E-02
       1.0000E-02  1.0000E-02  1.0000E-02  1.0000E-02  1.0000E-02  1.0000E-02  1.0000E-02  1.0000E-02  1.0000E-02  7.4841E-02
       0.1056      0.1073      7.5955E-02  1.0000E-02  1.0000E-02  1.0000E-02  1.0000E-02  1.0000E-02  1.0000E-02  0.2907    
       0.4531      0.5419      0.5812      0.5681       2.930       4.004       4.493       5.929       5.364       4.604    
        2.261       1.969       1.607       1.352       1.047      0.7002      0.3228      6.2190E-02  1.0000E-02  1.0000E-02
       1.0000E-02  1.0000E-02  1.0000E-02  1.0000E-02  1.0000E-02  1.0000E-02  1.0000E-02  1.0000E-02  1.0000E-02  1.0000E-02
       1.0000E-02  1.0000E-02  1.0000E-02  1.0000E-02  1.0000E-02  5.9981E-02  3.2410E-02  1.0000E-02  1.0000E-02  1.0000E-02
       1.0000E-02  1.0000E-02  1.0000E-02  9.5597E-02  0.1336      0.1470      0.1294      7.8049E-02  2.1861E-02  1.0000E-02
       1.0000E-02  1.0000E-02  1.0000E-02  1.0000E-02  1.0000E-02  1.0000E-02  1.0000E-02  1.0000E-02  1.0000E-02  1.0000E-02
       1.0000E-02  1.0000E-02  1.0000E-02  1.0000E-02  1.0000E-02  1.0000E-02  1.0000E-02  1.0000E-02  1.0000E-02  1.0000E-02
  20   1.0000E-02  1.0000E-02  1.0000E-02  1.0000E-02  1.0000E-02  1.0000E-02  1.0000E-02  1.0000E-02  1.0000E-02  1.0000E-02
       1.0000E-02  1.0000E-02  1.0000E-02  1.0000E-02  1.0000E-02  1.0000E-02  1.0000E-02  1.0000E-02  1.0000E-02  1.0000E-02
       1.0000E-02  1.0000E-02  1.0000E-02  1.0000E-02  1.0000E-02  1.0000E-02  1.0000E-02  1.0000E-02  1.0000E-02  1.0000E-02
       1.0000E-02  1.0000E-02  1.0000E-02  1.0000E-02  1.0000E-02  1.0000E-02  1.0000E-02  1.0000E-02  1.0000E-02  1.0000E-02
       1.0000E-02  1.0000E-02  1.0000E-02  1.0000E-02  1.0000E-02  1.0000E-02  1.0000E-02  1.0000E-02  1.0000E-02  1.0000E-02
       1.0000E-02  1.0000E-02  1.0000E-02  1.0000E-02  1.0000E-02  1.0000E-02  1.0000E-02  1.0000E-02  1.0000E-02  1.0000E-02
       1.0000E-02  1.0000E-02  1.0000E-02  1.0000E-02  1.0000E-02  1.0000E-02  1.0000E-02  1.0000E-02  9.8692E-02  0.2220    
       0.2874      0.3103      0.2805      0.1710      1.0000E-02  1.0000E-02  1.0000E-02  0.1925      0.3407      0.4963    
       0.6072      0.6754      0.7125       2.974       5.659       5.845       5.790       5.151       3.148       2.891    
        2.468       2.065       1.694       1.389       1.041      0.6626      0.2646      1.0000E-02  1.0000E-02  1.0000E-02
       1.0000E-02  1.0000E-02  1.0000E-02  1.0000E-02  1.0000E-02  1.0000E-02  1.0000E-02  1.0000E-02  1.0000E-02  1.0000E-02
       1.0000E-02  1.0000E-02  1.0000E-02  0.1076      0.1883      0.2766      0.2426      0.1976      0.1151      1.0000E-02
       1.0000E-02  1.0000E-02  0.1683      0.3157      0.3419      0.3056      0.2310      0.1129      1.0000E-02  1.0000E-02
       1.0000E-02  1.0000E-02  1.0000E-02  1.0000E-02  1.0000E-02  1.0000E-02  1.0000E-02  1.0000E-02  1.0000E-02  1.0000E-02
       1.0000E-02  1.0000E-02  1.0000E-02  1.0000E-02  1.0000E-02  1.0000E-02  1.0000E-02  1.0000E-02  1.0000E-02  1.0000E-02
  21   1.0000E-02  1.0000E-02  1.0000E-02  1.0000E-02  1.0000E-02  1.0000E-02  1.0000E-02  1.0000E-02  1.0000E-02  1.0000E-02
       1.0000E-02  1.0000E-02  1.0000E-02  1.0000E-02  1.0000E-02  1.0000E-02  1.0000E-02  1.0000E-02  1.0000E-02  1.0000E-02
       1.0000E-02  1.0000E-02  1.0000E-02  1.0000E-02  1.0000E-02  1.0000E-02  1.0000E-02  1.0000E-02  1.0000E-02  1.0000E-02
       1.0000E-02  1.0000E-02  1.0000E-02  1.0000E-02  1.0000E-02  1.0000E-02  1.0000E-02  1.0000E-02  1.0000E-02  1.0000E-02
       1.0000E-02  1.0000E-02  1.0000E-02  1.0000E-02  1.0000E-02  1.0000E-02  1.0000E-02  1.0000E-02  1.0000E-02  1.0000E-02
       1.0000E-02  1.0000E-02  1.0000E-02  1.0000E-02  1.0000E-02  1.0000E-02  1.0000E-02  1.0000E-02  1.0000E-02  1.0000E-02
       1.0000E-02  1.0000E-02  1.0000E-02  1.0000E-02  1.0000E-02  1.0000E-02  1.0000E-02  0.1107      0.2718      0.3975    
       0.4846      0.5352      0.5403      0.4955      0.4218      0.3481      0.4318      0.5365      0.6296      0.7088    
       0.7671      0.8082      0.8339       4.046       5.360       4.177       4.026       3.756       3.358       3.006    
        2.608       2.175       1.776       1.431       1.045      0.6395      0.2390      1.0000E-02  1.0000E-02  1.0000E-02
       1.0000E-02  1.0000E-02  1.0000E-02  1.0000E-02  1.0000E-02  1.0000E-02  1.0000E-02  1.0000E-02  1.0000E-02  1.0000E-02
       1.0000E-02  1.0000E-02  0.2020      0.3556      0.5036      0.5892      0.6040      0.5570      0.4123      1.0000E-02
       0.2824      0.3852      0.5449      0.6028      0.5770      0.4922      0.3665      0.2058      5.6370E-02  1.0000E-02
       1.0000E-02  1.0000E-02  1.0000E-02  1.0000E-02  1.0000E-02  1.0000E-02  1.0000E-02  1.0000E-02  1.0000E-02  1.0000E-02
       1.0000E-02  1.0000E-02  1.0000E-02  1.0000E-02  1.0000E-02  1.0000E-02  1.0000E-02  1.0000E-02  1.0000E-02  1.0000E-02
  22   1.0000E-02  1.0000E-02  1.0000E-02  1.0000E-02  1.0000E-02  1.0000E-02  1.0000E-02  1.0000E-02  1.0000E-02  1.0000E-02
       1.0000E-02  1.0000E-02  1.0000E-02  1.0000E-02  1.0000E-02  1.0000E-02  1.0000E-02  1.0000E-02  1.0000E-02  1.0000E-02
       1.0000E-02  1.0000E-02  1.0000E-02  1.0000E-02  1.0000E-02  1.0000E-02  1.0000E-02  1.0000E-02  1.0000E-02  1.0000E-02
       1.0000E-02  1.0000E-02  1.0000E-02  1.0000E-02  1.0000E-02  1.0000E-02  1.0000E-02  1.0000E-02  1.0000E-02  1.0000E-02
       1.0000E-02  1.0000E-02  1.0000E-02  1.0000E-02  1.0000E-02  1.0000E-02  1.0000E-02  1.0000E-02  1.0000E-02  1.0000E-02
       1.0000E-02  1.0000E-02  1.0000E-02  1.0000E-02  1.0000E-02  1.0000E-02  1.0000E-02  1.0000E-02  1.0000E-02  1.0000E-02
       1.0000E-02  1.0000E-02  1.0000E-02  1.0000E-02  3.0095E-02  7.0545E-02  0.1348      0.2794      0.4306      0.5675    
       0.6795      0.7632      0.8131      0.8255      0.8086      0.7849      0.8039      0.8442      0.8786      0.9007    
       0.9111      0.9252      0.9241       4.453       4.415       4.280       4.099       3.839       3.504       3.142    
        2.741       2.306       1.881       1.495       1.064      0.6099      0.1987      1.0000E-02  1.0000E-02  1.0000E-02
       1.0000E-02  1.0000E-02  1.0000E-02  1.0000E-02  1.0000E-02  1.0000E-02  1.0000E-02  1.0000E-02  1.0000E-02  1.0000E-02
       6.2796E-02  0.2290      0.4367      0.6628      0.8434      0.9490      0.9952      0.9948      0.9377      0.8339    
       0.8847      0.9265      0.9538      0.9311      0.8479      0.7104      0.5242      0.2722      6.3426E-02  1.0000E-02
       1.0000E-02  1.0000E-02  1.0000E-02  1.0000E-02  1.0000E-02  1.0000E-02  1.0000E-02  1.0000E-02  1.0000E-02  1.0000E-02
       1.0000E-02  1.0000E-02  1.0000E-02  1.0000E-02  1.0000E-02  1.0251E-02  1.0000E-02  1.0000E-02  1.0000E-02  1.0000E-02
  23   1.0000E-02  1.0000E-02  1.0000E-02  1.0000E-02  1.0000E-02  1.0000E-02  1.0000E-02  1.0000E-02  1.0000E-02  1.0000E-02
       1.0000E-02  1.0000E-02  1.0000E-02  1.0000E-02  1.0000E-02  1.0000E-02  1.0000E-02  1.0000E-02  1.0000E-02  1.0000E-02
       1.0000E-02  1.0000E-02  1.0000E-02  1.0000E-02  1.0000E-02  1.0000E-02  1.0000E-02  1.0000E-02  1.0000E-02  1.0000E-02
       1.0000E-02  1.0000E-02  1.0000E-02  1.0000E-02  1.0000E-02  1.0000E-02  1.0000E-02  1.0000E-02  1.0000E-02  1.0000E-02
       1.0000E-02  1.0000E-02  1.0000E-02  1.0000E-02  1.0000E-02  1.0000E-02  1.0000E-02  1.0000E-02  1.0000E-02  1.0000E-02
       1.0000E-02  1.0000E-02  1.0000E-02  1.0000E-02  1.0000E-02  1.0000E-02  1.0000E-02  1.0000E-02  1.0000E-02  1.0000E-02
       1.0000E-02  1.0000E-02  1.0000E-02  1.0000E-02  4.7847E-02  0.1366      0.2482      0.3957      0.5593      0.7206    
       0.8648      0.9862       1.082       1.142       1.159       1.143       1.117       1.100       1.078       1.059    
        1.021       1.029       4.218       6.120       4.514       4.402       4.221       3.968       3.651       3.287    
        2.864       2.446       2.037       1.594       1.101      0.5369      0.1218      1.0000E-02  1.0000E-02  1.0000E-02
       1.0000E-02  1.0000E-02  1.0000E-02  1.0000E-02  1.0000E-02  1.0000E-02  1.0000E-02  1.0000E-02  1.0000E-02  6.4264E-02
       0.2373      0.4835      0.7515       1.022       1.213       1.337       1.414       1.454       1.454       1.426    
        1.418       1.399       1.359       1.280       1.149      0.9628      0.7283      0.4462      0.1453      1.0000E-02
       1.0000E-02  1.0000E-02  1.0000E-02  1.0000E-02  1.0000E-02  1.0000E-02  1.0000E-02  1.0000E-02  1.0000E-02  1.0000E-02
       1.0000E-02  1.0000E-02  1.0000E-02  1.3243E-02  1.5640E-02  1.3243E-02  1.0000E-02  1.0000E-02  1.0000E-02  1.0000E-02
  24   1.0000E-02  1.0000E-02  1.0000E-02  1.0000E-02  1.0000E-02  1.0000E-02  1.0000E-02  1.0000E-02  1.0000E-02  1.0000E-02
       1.0000E-02  1.0000E-02  1.0000E-02  1.0000E-02  1.0000E-02  1.0000E-02  1.0000E-02  1.0000E-02  1.0000E-02  1.0000E-02
       1.0000E-02  1.0000E-02  1.0000E-02  1.0000E-02  1.0000E-02  1.0000E-02  1.0000E-02  1.0000E-02  1.0000E-02  1.0000E-02
       1.0000E-02  1.0000E-02  1.0000E-02  1.0000E-02  1.0000E-02  1.0000E-02  1.0000E-02  1.0000E-02  1.0000E-02  1.0000E-02
       1.0000E-02  1.0000E-02  1.0000E-02  1.0000E-02  1.0000E-02  1.0000E-02  1.0000E-02  1.0000E-02  1.0000E-02  1.0000E-02
       1.0000E-02  1.0000E-02  1.0000E-02  1.0000E-02  1.0000E-02  1.0000E-02  1.0000E-02  1.0000E-02  1.0000E-02  1.0000E-02
       1.0000E-02  1.0000E-02  1.0000E-02  1.0000E-02  1.0000E-02  0.1406      0.2850      0.4591      0.6542      0.8527    
        1.039       1.204       1.342       1.443       1.486       1.464       1.374       1.304       1.214       1.193    
        4.794       7.125       8.773       6.812       4.683       4.561       4.374       4.125       3.815       3.457    
        3.047       2.621       2.212       1.740       1.206      0.6032      1.0000E-02  1.0000E-02  1.0000E-02  1.0000E-02
       1.0000E-02  1.0000E-02  1.0000E-02  1.0000E-02  1.0000E-02  1.0000E-02  1.0000E-02  1.0000E-02  1.0000E-02  0.2418    
       0.5384      0.8255       1.150       1.407       1.601       1.737       1.834       1.897       1.926       1.921    
        1.895       1.840       1.761       1.643       1.474       1.247      0.9602      0.6151      0.2296      1.0000E-02
       1.0000E-02  1.0000E-02  1.0000E-02  1.0000E-02  1.0000E-02  1.0000E-02  1.0000E-02  1.0000E-02  1.0000E-02  1.0000E-02
       1.0000E-02  1.0000E-02  1.0000E-02  1.7121E-02  1.8958E-02  1.5005E-02  1.0329E-02  1.0000E-02  1.0000E-02  1.0000E-02
  25   1.0000E-02  1.0000E-02  1.0000E-02  1.0000E-02  1.0000E-02  1.0000E-02  1.0000E-02  1.0000E-02  1.0000E-02  1.0000E-02
       1.0000E-02  1.0000E-02  1.0000E-02  1.0000E-02  1.0000E-02  1.0000E-02  1.0000E-02  1.0000E-02  1.0000E-02  1.0000E-02
       1.0000E-02  1.0000E-02  1.0000E-02  1.0000E-02  1.0000E-02  1.0000E-02  1.0000E-02  1.0000E-02  1.0000E-02  1.0000E-02
       1.0000E-02  1.0000E-02  1.0000E-02  1.0000E-02  1.0000E-02  1.0000E-02  1.0000E-02  1.0000E-02  1.0000E-02  1.0000E-02
       1.0000E-02  1.0000E-02  1.0000E-02  1.0000E-02  1.0000E-02  1.0000E-02  1.0000E-02  1.0000E-02  1.0000E-02  1.0000E-02
       1.0000E-02  1.0000E-02  1.0000E-02  1.0000E-02  1.0000E-02  1.0000E-02  1.0000E-02  1.0000E-02  1.0000E-02  1.0000E-02
       1.0000E-02  1.0000E-02  1.0000E-02  1.0000E-02  1.0000E-02  8.4211E-02  0.2541      0.4672      0.7093      0.9600    
        1.199       1.416       1.602       1.749       1.830       1.806       1.571       1.484       4.205       6.231    
        9.854       10.86       8.322       5.126       4.924       4.750       4.546       4.294       3.989       3.639    
        3.262       2.867       2.436       1.946       1.376      0.6538      1.0000E-02  1.0000E-02  1.0000E-02  1.0000E-02
       1.0000E-02  1.0000E-02  1.0000E-02  1.0000E-02  1.0000E-02  1.0000E-02  1.0000E-02  1.0000E-02  0.2537      0.6032    
       0.8762       1.221       1.548       1.805       1.999       2.142       2.249       2.324       2.366       2.367    
        2.334       2.266       2.163       2.020       1.826       1.564       1.224      0.8039      0.3100      1.0000E-02
       1.0000E-02  1.0000E-02  1.0000E-02  1.0000E-02  1.0000E-02  1.0000E-02  1.0000E-02  1.0000E-02  1.0000E-02  1.0000E-02
       1.0000E-02  1.0000E-02  2.8173E-02  2.5827E-02  2.1373E-02  1.4215E-02  1.0000E-02  1.0000E-02  1.0000E-02  1.0000E-02
  26   1.0000E-02  1.0000E-02  1.0000E-02  1.0000E-02  1.0000E-02  1.0000E-02  1.0000E-02  1.0000E-02  1.0000E-02  1.0000E-02
       1.0000E-02  1.0000E-02  1.0000E-02  1.0000E-02  1.0000E-02  1.0000E-02  1.0000E-02  1.0000E-02  1.0000E-02  1.0000E-02
       1.0000E-02  1.0000E-02  1.0000E-02  1.0000E-02  1.0000E-02  1.0000E-02  1.0000E-02  1.0000E-02  1.0000E-02  1.0000E-02
       1.0000E-02  1.0000E-02  1.0000E-02  1.0000E-02  1.0000E-02  1.0000E-02  1.0000E-02  1.0000E-02  1.0000E-02  1.0000E-02
       1.0000E-02  1.0000E-02  1.0000E-02  1.0000E-02  1.0000E-02  1.0000E-02  1.0000E-02  1.0000E-02  1.0000E-02  1.0000E-02
       1.0000E-02  1.0000E-02  1.0000E-02  1.0000E-02  1.0000E-02  1.0000E-02  1.0000E-02  1.0000E-02  1.0000E-02  1.0000E-02
       1.0000E-02  1.0000E-02  1.0000E-02  1.0000E-02  1.0000E-02  1.0000E-02  0.1322      0.4038      0.7188       1.040    
        1.345       1.624       1.872       2.083       2.244       2.331       4.241       5.661       8.098       9.480    
        10.38       8.439       5.414       5.261       5.096       4.924       4.720       4.470       4.159       3.846    
        3.510       3.131       2.706       2.231       1.695       1.076      0.3897      1.0000E-02  1.0000E-02  1.0000E-02
       1.0000E-02  1.0000E-02  1.0000E-02  1.0000E-02  1.0000E-02  1.0000E-02  1.0000E-02  0.3049      0.6974      0.9939    
        1.288       1.656       1.964       2.212       2.403       2.550       2.664       2.747       2.788       2.789    
        2.752       2.681       2.569       2.412       2.202       1.919       1.537       1.044      0.4228      1.0000E-02
       1.0000E-02  1.0000E-02  1.0000E-02  1.0000E-02  1.0000E-02  1.0000E-02  1.0000E-02  1.0000E-02  1.0000E-02  1.0000E-02
       1.0000E-02  5.1153E-02  5.5045E-02  3.6548E-02  1.9454E-02  1.0000E-02  1.0000E-02  1.0000E-02  1.0000E-02  1.0000E-02
  27   1.0000E-02  1.0000E-02  1.0000E-02  1.0000E-02  1.0000E-02  1.0000E-02  1.0000E-02  1.0000E-02  1.0000E-02  1.0000E-02
       1.0000E-02  1.0000E-02  1.0000E-02  1.0000E-02  1.0000E-02  1.0000E-02  1.0000E-02  1.0000E-02  1.0000E-02  1.0000E-02
       1.0000E-02  1.0000E-02  1.0000E-02  1.0000E-02  1.0000E-02  1.0000E-02  1.0000E-02  1.0000E-02  1.0000E-02  1.0000E-02
       1.0000E-02  1.0000E-02  1.0000E-02  1.0000E-02  1.0000E-02  1.0000E-02  1.0000E-02  1.0000E-02  1.0000E-02  1.0000E-02
       1.0000E-02  1.0000E-02  1.0000E-02  1.0000E-02  1.0000E-02  1.0000E-02  1.0000E-02  1.0000E-02  1.0000E-02  1.0000E-02
       1.0000E-02  1.0000E-02  1.0000E-02  1.0000E-02  1.0000E-02  1.0000E-02  1.0000E-02  1.0000E-02  1.0000E-02  1.0000E-02
       1.0000E-02  1.0000E-02  1.0000E-02  1.0000E-02  1.0000E-02  1.0000E-02  1.0000E-02  0.2420      0.6736       1.092    
        1.479       1.830       2.148       2.438       2.694       2.893       5.462       6.966       7.802       8.217    
        7.727       5.551       5.481       5.380       5.253       5.096       4.903       4.664       4.366       4.066    
        3.770       3.419       3.020       2.576       2.092       1.560      0.9930      0.4029      1.0000E-02  1.0000E-02
       1.0000E-02  1.0000E-02  1.0000E-02  1.0000E-02  1.0000E-02  0.2735      0.5036      0.8699       1.175       1.413    
        1.754       2.103       2.392       2.627       2.813       2.961       3.080       3.162       3.202       3.203    
        3.164       3.092       2.980       2.823       2.612       2.322       1.922       1.380      0.6342      8.6576E-02
       1.0000E-02  1.0000E-02  1.0000E-02  1.0000E-02  1.0000E-02  1.0000E-02  1.0000E-02  0.1127      0.1452      0.1468    
       0.1328      0.1297      9.0812E-02  4.5288E-02  1.0000E-02  1.0000E-02  1.0000E-02  1.0000E-02  1.0000E-02  1.0000E-02
  28   1.0000E-02  1.0000E-02  1.0000E-02  1.0000E-02  1.0000E-02  1.0000E-02  1.0000E-02  1.0000E-02  1.0000E-02  1.0000E-02
       1.0000E-02  1.0000E-02  1.0000E-02  1.0000E-02  1.0000E-02  1.0000E-02  1.0000E-02  1.0000E-02  1.0000E-02  1.0000E-02
       1.0000E-02  1.0000E-02  1.0000E-02  1.0000E-02  1.0000E-02  1.0000E-02  1.0000E-02  1.0000E-02  1.0000E-02  1.0000E-02
       1.0000E-02  1.0000E-02  1.0000E-02  1.0000E-02  1.0000E-02  1.0000E-02  1.0000E-02  1.0000E-02  1.0000E-02  1.0000E-02
       1.0000E-02  1.0000E-02  1.0000E-02  1.0000E-02  1.0000E-02  1.0000E-02  1.0000E-02  1.0000E-02  1.0000E-02  1.0000E-02
       1.0000E-02  1.0000E-02  1.0000E-02  1.0000E-02  1.0000E-02  4.7041E-02  7.6145E-02  5.6528E-02  1.0000E-02  1.0000E-02
       1.0000E-02  1.0000E-02  1.0000E-02  1.0000E-02  1.0000E-02  1.0000E-02  1.0000E-02  1.0000E-02  0.5831       1.120    
        1.603       2.034       2.425       2.792       3.159       3.582       4.262       4.731       5.063       5.303    
        5.466       5.548       5.548       5.498       5.407       5.275       5.103       4.885       4.609       4.322    
        4.048       3.727       3.362       2.960       2.531       2.080       1.614       1.150      0.7036      0.5613    
       0.5070      0.4864      0.4891      0.5199      0.6145      0.9208       1.172       1.433       1.658       1.902    
        2.247       2.556       2.821       3.044       3.224       3.372       3.489       3.568       3.609       3.613    
        3.579       3.510       3.404       3.257       3.061       2.790       2.416       1.891       1.066      0.1357    
       1.0000E-02  1.0000E-02  1.0000E-02  1.0000E-02  1.0000E-02  1.0000E-02  0.2301      0.3546      0.3938      0.3712    
       0.3054      0.2193      0.1227      4.1985E-02  1.0000E-02  1.0000E-02  1.0000E-02  1.0000E-02  1.0000E-02  1.0000E-02
  29   1.0000E-02  1.0000E-02  1.0000E-02  1.0000E-02  1.0000E-02  1.0000E-02  1.0000E-02  1.0000E-02  1.0000E-02  1.0000E-02
       1.0000E-02  1.0000E-02  1.0000E-02  1.0000E-02  1.0000E-02  1.0000E-02  1.0000E-02  1.0000E-02  1.0000E-02  1.0000E-02
       1.0000E-02  1.0000E-02  1.0000E-02  1.0000E-02  1.0000E-02  1.0000E-02  1.0000E-02  1.0000E-02  1.0000E-02  1.0000E-02
       1.0000E-02  1.0000E-02  1.0000E-02  1.0000E-02  1.0000E-02  1.0000E-02  1.0000E-02  1.0000E-02  1.0000E-02  1.0000E-02
       1.0000E-02  1.0000E-02  1.0000E-02  1.0000E-02  1.0000E-02  1.0000E-02  1.0000E-02  1.0000E-02  1.0000E-02  1.0000E-02
       1.0000E-02  1.0000E-02  1.0000E-02  1.0000E-02  1.0000E-02  0.1176      0.2031      0.1911      9.4417E-02  1.0000E-02
       1.0000E-02  1.0000E-02  1.0000E-02  1.0000E-02  1.0000E-02  1.0000E-02  1.0000E-02  1.0000E-02  0.4498       1.137    
        1.728       2.237       2.687       3.104       3.515       3.942       4.408       4.794       5.098       5.333    
        5.501       5.601       5.639       5.626       5.563       5.453       5.301       5.107       4.855       4.572    
        4.317       4.037       3.714       3.360       2.986       2.606       2.227       1.869       1.569       1.398    
        1.302       1.259       1.260       1.307       1.412       1.598       1.794       1.982       2.138       2.426    
        2.738       3.015       3.259       3.466       3.637       3.778       3.891       3.968       4.012       4.022    
        3.996       3.935       3.844       3.717       3.548       3.320       3.026       2.679       2.345       2.107    
       1.0000E-02  1.0000E-02  1.0000E-02  1.0000E-02  1.0000E-02  0.2329      0.5065      0.6312      0.6489      0.5852    
       0.4624      0.3077      0.1331      2.2520E-02  1.0000E-02  1.0000E-02  1.0000E-02  1.0000E-02  1.0000E-02  1.0000E-02
  30   1.0000E-02  1.0000E-02  1.0000E-02  1.0000E-02  1.0000E-02  1.0000E-02  1.0000E-02  1.0000E-02  1.0000E-02  1.0000E-02
       1.0000E-02  1.0000E-02  1.0000E-02  1.0000E-02  1.0000E-02  1.0000E-02  1.0000E-02  1.0000E-02  1.0000E-02  1.0000E-02
       1.0000E-02  1.0000E-02  1.0000E-02  1.0000E-02  1.0000E-02  1.0000E-02  1.0000E-02  1.0000E-02  1.0000E-02  1.0000E-02
       1.0000E-02  1.0000E-02  1.0000E-02  1.0000E-02  1.0000E-02  1.0000E-02  1.0000E-02  1.0000E-02  1.0000E-02  1.0000E-02
       1.0000E-02  1.0000E-02  1.0000E-02  1.0000E-02  1.0000E-02  1.0000E-02  1.0000E-02  1.0000E-02  1.0000E-02  1.0000E-02
       1.0000E-02  1.0000E-02  1.0000E-02  1.0000E-02  1.0000E-02  0.2449      0.3634      0.3736      0.2882      0.1212    
       1.0000E-02  1.0000E-02  1.0000E-02  1.0000E-02  1.0000E-02  1.0000E-02  1.0000E-02  1.0000E-02  0.3619       1.178    
        1.871       2.448       2.938       3.377       3.792       4.194       4.574       4.905       5.184       5.408    
        5.577       5.690       5.750       5.759       5.716       5.623       5.488       5.318       5.108       4.855    
        4.608       4.337       4.065       3.758       3.432       3.101       2.789       2.514       2.285       2.124    
        2.014       1.959       1.955       2.002       2.100       2.239       2.391       2.534       2.692       2.977    
        3.248       3.494       3.711       3.897       4.052       4.182       4.287       4.362       4.408       4.425    
        4.410       4.363       4.292       4.191       4.056       3.878       3.663       3.443       3.281       4.754    
        2.737      1.0000E-02  1.0000E-02  1.0000E-02  1.0000E-02  0.5442      0.8754      0.9605      0.9235      0.8032    
       0.6218      0.4030      0.1581      1.0000E-02  1.0000E-02  1.0000E-02  1.0000E-02  1.0000E-02  1.0000E-02  1.0000E-02
  31   1.0000E-02  1.0000E-02  1.0000E-02  1.0000E-02  1.0000E-02  1.0000E-02  1.0000E-02  1.0000E-02  1.0000E-02  1.0000E-02
       1.0000E-02  1.0000E-02  1.0000E-02  1.0000E-02  1.0000E-02  1.0000E-02  1.0000E-02  1.0000E-02  1.0000E-02  1.0000E-02
       1.0000E-02  1.0000E-02  1.0000E-02  1.0000E-02  1.0000E-02  1.0000E-02  1.0000E-02  1.0000E-02  1.0000E-02  1.0000E-02
       1.0000E-02  1.0000E-02  1.0000E-02  1.0000E-02  1.0000E-02  1.0000E-02  1.0000E-02  1.0000E-02  1.0000E-02  1.0000E-02
       1.0000E-02  1.0000E-02  1.0000E-02  1.0000E-02  1.0000E-02  1.0000E-02  1.0000E-02  1.0000E-02  1.0000E-02  1.0000E-02
       1.0000E-02  1.0000E-02  1.0000E-02  1.0000E-02  0.1971      0.4442      0.5781      0.6051      0.5308      0.3442    
       1.0000E-02  1.0000E-02  1.0000E-02  1.0000E-02  1.0000E-02  1.0000E-02  1.0000E-02  1.0000E-02  1.0000E-02   1.248    
        2.061       2.683       3.191       3.630       4.029       4.404       4.746       5.046       5.301       5.513    
        5.681       5.801       5.870       5.890       5.860       5.781       5.665       5.516       5.332       5.115    
        4.908       4.673       4.424       4.150       3.857       3.543       3.274       3.084       2.903       2.754    
        2.639       2.575       2.569       2.618       2.720       2.843       2.972       3.103       3.285       3.526    
        3.760       3.975       4.167       4.332       4.469       4.583       4.675       4.745       4.795       4.821    
        4.817       4.789       4.742       4.669       4.571       4.442       4.287       4.132       4.025       7.339    
        6.608      1.3743E-02  1.0000E-02   7.786       6.058       1.450       1.443       1.370       1.231       1.035    
       0.7888      0.5043      0.1925      1.0000E-02  1.0000E-02  1.0000E-02  1.0000E-02  1.0000E-02  1.0000E-02  1.0000E-02
  32   1.0000E-02  1.0000E-02  1.0000E-02  1.0000E-02  1.0000E-02  1.0000E-02  1.0000E-02  1.0000E-02  1.0000E-02  1.0000E-02
       1.0000E-02  1.0000E-02  1.0000E-02  1.0000E-02  1.0000E-02  1.0000E-02  1.0000E-02  1.0000E-02  1.0000E-02  1.0000E-02
       1.0000E-02  1.0000E-02  1.0000E-02  1.0000E-02  1.0000E-02  1.0000E-02  1.0000E-02  1.0000E-02  1.0000E-02  1.0000E-02
       1.0000E-02  1.0000E-02  1.0000E-02  1.0000E-02  1.0000E-02  1.0000E-02  1.0000E-02  1.0000E-02  1.0000E-02  1.0000E-02
       1.0000E-02  1.0000E-02  1.0000E-02  1.0000E-02  1.0000E-02  1.0000E-02  1.0000E-02  1.0000E-02  1.0000E-02  1.0000E-02
       1.0000E-02  1.0000E-02  1.0000E-02  1.0000E-02  0.4601      0.7218      0.8557      0.8906      0.8350      0.6757    
       0.3938      1.0000E-02  1.0000E-02  1.0000E-02  1.0000E-02  1.0000E-02  1.0000E-02  1.0000E-02  0.6120       1.605    
        2.364       2.967       3.461       3.882       4.258       4.608       4.923       5.197       5.431       5.631    
        5.799       5.921       5.992       6.014       5.992       5.931       5.836       5.710       5.554       5.380    
        5.182       4.993       4.776       4.533       4.274       4.025       3.784       3.615       3.465       3.315    
        3.174       3.106       3.100       3.159       3.297       3.415       3.531       3.651       3.829       4.048    
        4.256       4.448       4.616       4.758       4.876       4.975       5.056       5.122       5.173       5.206    
        5.214       5.207       5.182       5.138       5.075       4.988       4.877       4.747       4.627       15.48    
        22.51       18.87       18.79       16.93       2.803       2.303       2.040       1.818       1.570       1.289    
       0.9701      0.6139      0.2294      1.0000E-02  1.0000E-02  1.0000E-02  1.0000E-02  1.0000E-02  1.0000E-02  1.0000E-02
  33   1.0000E-02  1.0000E-02  1.0000E-02  1.0000E-02  1.0000E-02  1.0000E-02  1.0000E-02  1.0000E-02  1.0000E-02  1.0000E-02
       1.0000E-02  1.0000E-02  1.0000E-02  1.0000E-02  1.0000E-02  1.0000E-02  1.0000E-02  1.0000E-02  1.0000E-02  1.0000E-02
       1.0000E-02  1.0000E-02  1.0000E-02  1.0000E-02  1.0000E-02  1.0000E-02  1.0000E-02  1.0000E-02  1.0000E-02  1.0000E-02
       1.0000E-02  1.0000E-02  1.0000E-02  1.0000E-02  1.0000E-02  1.0000E-02  1.0000E-02  1.0000E-02  1.0000E-02  1.0000E-02
       1.0000E-02  1.0000E-02  1.0000E-02  1.0000E-02  1.0000E-02  1.0000E-02  1.0000E-02  1.0000E-02  1.0000E-02  1.0000E-02
       1.0000E-02  1.0000E-02  1.0000E-02  0.5056      0.8571       1.077       1.191       1.226       1.188       1.059    
       0.8070      0.3900      1.0000E-02  1.0000E-02  1.0000E-02  1.0000E-02  1.0000E-02  1.0000E-02   1.208       2.075    
        2.746       3.294       3.751       4.141       4.491       4.810       5.097       5.348       5.567       5.759    
        5.921       6.040       6.109       6.132       6.119       6.075       6.001       5.898       5.765       5.628    
        5.465       5.296       5.104       4.893       4.695       4.517       4.347       4.144       3.998       3.842    
        3.748       3.695       3.693       3.751       3.868       3.960       4.057       4.161       4.335       4.544    
        4.735       4.905       5.048       5.170       5.275       5.365       5.440       5.501       5.549       5.583    
        5.603       5.611       5.604       5.582       5.547       5.495       5.417       5.290       5.031       24.74    
        37.65       38.14       32.01       17.27       3.223       2.891       2.568       2.261       1.933       1.569    
        1.169      0.7344      0.2713      1.0000E-02  1.0000E-02  1.0000E-02  1.0000E-02  1.0000E-02  1.0000E-02  1.0000E-02
  34   1.0000E-02  1.0000E-02  1.0000E-02  1.0000E-02  1.0000E-02  1.0000E-02  1.0000E-02  1.0000E-02  1.0000E-02  1.0000E-02
       1.0000E-02  1.0000E-02  1.0000E-02  1.0000E-02  1.0000E-02  1.0000E-02  1.0000E-02  1.0000E-02  1.0000E-02  1.0000E-02
       1.0000E-02  1.0000E-02  1.0000E-02  1.0000E-02  1.0000E-02  1.0000E-02  1.0000E-02  1.0000E-02  1.0000E-02  1.0000E-02
       1.0000E-02  1.0000E-02  1.0000E-02  1.0000E-02  1.0000E-02  1.0000E-02  1.0000E-02  1.0000E-02  1.0000E-02  1.0000E-02
       4.0449E-02  1.0000E-02  1.0000E-02  1.0000E-02  1.0000E-02  0.1321      1.0000E-02  0.2718      0.4527      0.5461    
       0.6127      0.6838      0.8045       1.070       1.307       1.473       1.566       1.598       1.576       1.481    
        1.289      0.9814      0.5225      1.0000E-02  0.4271      0.5928      0.7789       1.276       1.986       2.618    
        3.169       3.644       4.049       4.404       4.723       5.012       5.272       5.505       5.712       5.893    
        6.040       6.149       6.216       6.245       6.242       6.213       6.158       6.077       5.976       5.843    
        5.713       5.564       5.399       5.243       5.104       4.954       4.816       4.638       4.506       4.388    
        4.350       4.324       4.325       4.357       4.400       4.466       4.543       4.616       4.813       5.016    
        5.190       5.340       5.467       5.577       5.671       5.751       5.817       5.872       5.916       5.950    
        5.978       5.998       6.003       5.995       5.979       5.955       5.919       5.887       18.30       37.89    
        45.20       39.10       19.80       4.452       3.895       3.458       3.066       2.694       2.306       1.867    
        1.381      0.8587      0.3163      1.0000E-02  1.0000E-02  1.0000E-02  1.0000E-02  1.0000E-02  1.0000E-02  1.0000E-02
  35   1.0000E-02  1.0000E-02  1.0000E-02  1.0000E-02  1.0000E-02  1.0000E-02  1.0000E-02  1.0000E-02  1.0000E-02  1.0000E-02
       1.0000E-02  1.0000E-02  1.0000E-02  1.0000E-02  1.0000E-02  1.0000E-02  1.0000E-02  1.0000E-02  1.0000E-02  1.0000E-02
       1.0000E-02  1.0000E-02  1.0000E-02  1.0000E-02  1.0000E-02  1.0000E-02  1.0000E-02  1.0000E-02  1.0000E-02  1.0000E-02
       1.0000E-02  1.0000E-02  1.0000E-02  1.0000E-02  1.0000E-02  1.0000E-02  1.0000E-02  1.0000E-02  1.0000E-02  6.2004E-02
       0.1406      0.2031      0.2333      0.3523      0.4470      0.5528      0.6207      0.7714      0.9149       1.032    
        1.144       1.255       1.397       1.581       1.747       1.872       1.952       1.986       1.979       1.924    
        1.808       1.638       1.429       1.272       1.395       1.572       1.820       2.217       2.693       3.158    
        3.595       3.993       4.349       4.668       4.956       5.216       5.451       5.668       5.861       6.027    
        6.158       6.255       6.318       6.352       6.360       6.343       6.300       6.231       6.155       6.051    
        5.935       5.805       5.683       5.578       5.465       5.332       5.183       5.053       4.937       4.904    
[...]
       1.0000E-02  1.0000E-02  1.0000E-02  1.0000E-02  1.0000E-02  1.0000E-02  1.0000E-02  1.0000E-02  1.0000E-02  1.0000E-02
       1.0000E-02  1.0000E-02  1.0000E-02  1.0000E-02  1.0000E-02  1.0000E-02  1.0000E-02  1.0000E-02  1.0000E-02  1.0000E-02
       1.0000E-02  1.0000E-02  1.0000E-02  1.0000E-02  1.0000E-02  1.0000E-02  1.0000E-02  1.0000E-02  1.0000E-02  1.0000E-02
       1.0000E-02  1.0000E-02  1.0000E-02  1.0000E-02  1.0000E-02  1.0000E-02  1.0000E-02  1.0000E-02  1.0000E-02  1.0000E-02
       1.0000E-02  1.0000E-02  1.0000E-02  1.0000E-02  1.0000E-02  1.0000E-02  1.0000E-02  1.0000E-02  1.0000E-02  1.0000E-02
 143    24.72       24.68       24.92       25.14       25.34       25.54       25.71       25.85       25.96       26.05    
        26.12       26.19       26.24       26.28       26.31       26.33       26.35       26.36       26.37       26.37    
        26.34       26.23       25.87       25.14       24.71       24.34       23.99       23.64       23.29       22.95    
        22.62       22.29       21.95       21.60       21.25       20.90       20.54       20.18       19.82       19.47    
        19.11       18.74       18.36       17.97       17.59       17.20       16.82       16.43       16.06       15.70    
        15.35       15.01       14.69       14.40       14.13       13.86       13.60       13.32       13.08       19.58    
        24.62       25.31       23.17       10.36       2.324       3.525      1.0000E-02  1.0000E-02  1.0000E-02  1.0000E-02
       1.0000E-02  1.0000E-02  1.0000E-02  1.0000E-02  1.0000E-02  1.0000E-02  1.0000E-02  1.0000E-02  1.0000E-02  1.0000E-02
       1.0000E-02  1.0000E-02  1.0000E-02  1.0000E-02  1.0000E-02  1.0000E-02  1.0000E-02  1.0000E-02  1.0000E-02  1.0000E-02
       1.0000E-02  1.0000E-02  1.0000E-02  1.0000E-02  1.0000E-02  1.0000E-02  1.0000E-02  1.0000E-02  1.0000E-02  1.0000E-02
       1.0000E-02  1.0000E-02  1.0000E-02  1.0000E-02  1.0000E-02  1.0000E-02  1.0000E-02  1.0000E-02  1.0000E-02  1.0000E-02
       1.0000E-02  1.0000E-02  1.0000E-02  1.0000E-02  1.0000E-02  1.0000E-02  1.0000E-02  1.0000E-02  1.0000E-02  1.0000E-02
       1.0000E-02  1.0000E-02  1.0000E-02  1.0000E-02  1.0000E-02  1.0000E-02  1.0000E-02  1.0000E-02  1.0000E-02  1.0000E-02
       1.0000E-02  1.0000E-02  1.0000E-02  1.0000E-02  1.0000E-02  1.0000E-02  1.0000E-02  1.0000E-02  1.0000E-02  1.0000E-02
       1.0000E-02  1.0000E-02  1.0000E-02  1.0000E-02  1.0000E-02  1.0000E-02  1.0000E-02  1.0000E-02  1.0000E-02  1.0000E-02
 144    24.51       24.47       24.68       24.89       25.07       25.23       25.38       25.50       25.59       25.66    
        25.70       25.74       25.78       25.80       25.82       25.83       25.85       25.87       25.91       25.97    
        26.04       26.17       32.96       24.22       24.01       23.73       23.41       23.08       22.75       22.43    
        22.12       21.79       21.47       21.13       20.80       20.45       20.10       19.74       19.38       19.03    
        18.67       18.29       17.91       17.51       17.11       16.71       16.30       15.90       15.50       15.11    
        14.74       14.38       14.05       13.74       13.45       13.17       12.85       12.43       11.88       11.11    
        22.81       25.57       13.26      0.9309       1.243       2.157      1.0000E-02  1.0000E-02  1.0000E-02  1.0000E-02
       1.0000E-02  1.0000E-02  1.0000E-02  1.0000E-02  1.0000E-02  1.0000E-02  1.0000E-02  1.0000E-02  1.0000E-02  1.0000E-02
       1.0000E-02  1.0000E-02  1.0000E-02  1.0000E-02  1.0000E-02  1.0000E-02  1.0000E-02  1.0000E-02  1.0000E-02  1.0000E-02
       1.0000E-02  1.0000E-02  1.0000E-02  1.0000E-02  1.0000E-02  1.0000E-02  1.0000E-02  1.0000E-02  1.0000E-02  1.0000E-02
       1.0000E-02  1.0000E-02  1.0000E-02  1.0000E-02  1.0000E-02  1.0000E-02  1.0000E-02  1.0000E-02  1.0000E-02  1.0000E-02
       1.0000E-02  1.0000E-02  1.0000E-02  1.0000E-02  1.0000E-02  1.0000E-02  1.0000E-02  1.0000E-02  1.0000E-02  1.0000E-02
       1.0000E-02  1.0000E-02  1.0000E-02  1.0000E-02  1.0000E-02  1.0000E-02  1.0000E-02  1.0000E-02  1.0000E-02  1.0000E-02
       1.0000E-02  1.0000E-02  1.0000E-02  1.0000E-02  1.0000E-02  1.0000E-02  1.0000E-02  1.0000E-02  1.0000E-02  1.0000E-02
       1.0000E-02  1.0000E-02  1.0000E-02  1.0000E-02  1.0000E-02  1.0000E-02  1.0000E-02  1.0000E-02  1.0000E-02  1.0000E-02
 145    24.30       24.24       24.45       24.63       24.78       24.91       25.03       25.12       25.19       25.24    
        25.26       25.26       25.27       25.27       25.27       25.28       25.28       25.31       25.37       25.48    
        25.64       36.47       38.62       23.44       23.29       23.07       22.79       22.50       22.19       21.89    
        21.58       21.28       20.96       20.64       20.32       19.98       19.63       19.28       18.92       18.56    
        18.20       17.81       17.42       17.01       16.60       16.18       15.75       15.32       14.90       14.48    
        14.08       13.70       13.35       13.02       12.72       12.45       12.15       11.61       10.86       10.26    
        16.74       16.52      0.4742      0.5383      0.4176      1.0000E-02  1.0000E-02  1.0000E-02  1.0000E-02  1.0000E-02
       1.0000E-02  1.0000E-02  1.0000E-02  1.0000E-02  1.0000E-02  1.0000E-02  1.0000E-02  1.0000E-02  1.0000E-02  1.0000E-02
       1.0000E-02  1.0000E-02  1.0000E-02  1.0000E-02  1.0000E-02  1.0000E-02  1.0000E-02  1.0000E-02  1.0000E-02  1.0000E-02
       1.0000E-02  1.0000E-02  1.0000E-02  1.0000E-02  1.0000E-02  1.0000E-02  1.0000E-02  1.0000E-02  1.0000E-02  1.0000E-02
       1.0000E-02  1.0000E-02  1.0000E-02  1.0000E-02  1.0000E-02  1.0000E-02  1.0000E-02  1.0000E-02  1.0000E-02  1.0000E-02
       1.0000E-02  1.0000E-02  1.0000E-02  1.0000E-02  1.0000E-02  1.0000E-02  1.0000E-02  1.0000E-02  1.0000E-02  1.0000E-02
       1.0000E-02  1.0000E-02  1.0000E-02  1.0000E-02  1.0000E-02  1.0000E-02  1.0000E-02  1.0000E-02  1.0000E-02  1.0000E-02
       1.0000E-02  1.0000E-02  1.0000E-02  1.0000E-02  1.0000E-02  1.0000E-02  1.0000E-02  1.0000E-02  1.0000E-02  1.0000E-02
       1.0000E-02  1.0000E-02  1.0000E-02  1.0000E-02  1.0000E-02  1.0000E-02  1.0000E-02  1.0000E-02  1.0000E-02  1.0000E-02
 146    24.07       24.01       24.23       24.38       24.49       24.58       24.65       24.71       24.75       24.77    
        24.77       24.75       24.72       24.69       24.66       24.65       24.64       24.65       24.70       24.87    
        25.31       42.64       40.14       22.72       22.59       22.40       22.16       21.90       21.61       21.32    
        21.03       20.74       20.45       20.14       19.82       19.49       19.15       18.78       18.42       18.06    
        17.69       17.30       16.90       16.49       16.06       15.62       15.16       14.70       14.24       13.79    
        13.36       12.95       12.58       12.24       11.96       11.74       11.64       10.96       9.600       8.751    
        7.931       11.85      0.3121      0.2831      0.1635      1.0000E-02  1.0000E-02  1.0000E-02  1.0000E-02  1.0000E-02
       1.0000E-02  1.0000E-02  1.0000E-02  1.0000E-02  1.0000E-02  1.0000E-02  1.0000E-02  1.0000E-02  1.0000E-02  1.0000E-02
       1.0000E-02  1.0000E-02  1.0000E-02  1.0000E-02  1.0000E-02  1.0000E-02  1.0000E-02  1.0000E-02  1.0000E-02  1.0000E-02
       1.0000E-02  1.0000E-02  1.0000E-02  1.0000E-02  1.0000E-02  1.0000E-02  1.0000E-02  1.0000E-02  1.0000E-02  1.0000E-02
       1.0000E-02  1.0000E-02  1.0000E-02  1.0000E-02  1.0000E-02  1.0000E-02  1.0000E-02  1.0000E-02  1.0000E-02  1.0000E-02
       1.0000E-02  1.0000E-02  1.0000E-02  1.0000E-02  1.0000E-02  1.0000E-02  1.0000E-02  1.0000E-02  1.0000E-02  1.0000E-02
       1.0000E-02  1.0000E-02  1.0000E-02  1.0000E-02  1.0000E-02  1.0000E-02  1.0000E-02  1.0000E-02  1.0000E-02  1.0000E-02
       1.0000E-02  1.0000E-02  1.0000E-02  1.0000E-02  1.0000E-02  1.0000E-02  1.0000E-02  1.0000E-02  1.0000E-02  1.0000E-02
       1.0000E-02  1.0000E-02  1.0000E-02  1.0000E-02  1.0000E-02  1.0000E-02  1.0000E-02  1.0000E-02  1.0000E-02  1.0000E-02
 147    23.92       23.85       24.04       24.15       24.21       24.25       24.27       24.28       24.28       24.27    
        24.24       24.19       24.12       24.05       24.00       23.95       23.90       23.87       23.86       23.89    
        37.88       51.03       41.01       22.06       21.93       21.75       21.53       21.28       21.01       20.73    
        20.46       20.19       19.91       19.61       19.30       18.97       18.63       18.26       17.90       17.54    
        17.16       16.76       16.34       15.91       15.47       15.01       14.53       14.04       13.53       13.04    
        12.57       12.13       11.72       11.37       11.07       10.88       17.61       16.84       7.737       7.147    
        7.061       9.242      0.1242      0.1021      5.5398E-02  1.0000E-02  1.0000E-02  1.0000E-02  1.0000E-02  1.0000E-02
       1.0000E-02  1.0000E-02  1.0000E-02  1.0000E-02  1.0000E-02  1.0000E-02  1.0000E-02  1.0000E-02  1.0000E-02  1.0000E-02
       1.0000E-02  1.0000E-02  1.0000E-02  1.0000E-02  1.0000E-02  1.0000E-02  1.0000E-02  1.0000E-02  1.0000E-02  1.0000E-02
       1.0000E-02  1.0000E-02  1.0000E-02  1.0000E-02  1.0000E-02  1.0000E-02  1.0000E-02  1.0000E-02  1.0000E-02  1.0000E-02
       1.0000E-02  1.0000E-02  1.0000E-02  1.0000E-02  1.0000E-02  1.0000E-02  1.0000E-02  1.0000E-02  1.0000E-02  1.0000E-02
       1.0000E-02  1.0000E-02  1.0000E-02  1.0000E-02  1.0000E-02  1.0000E-02  1.0000E-02  1.0000E-02  1.0000E-02  1.0000E-02
       1.0000E-02  1.0000E-02  1.0000E-02  1.0000E-02  1.0000E-02  1.0000E-02  1.0000E-02  1.0000E-02  1.0000E-02  1.0000E-02
       1.0000E-02  1.0000E-02  1.0000E-02  1.0000E-02  1.0000E-02  1.0000E-02  1.0000E-02  1.0000E-02  1.0000E-02  1.0000E-02
       1.0000E-02  1.0000E-02  1.0000E-02  1.0000E-02  1.0000E-02  1.0000E-02  1.0000E-02  1.0000E-02  1.0000E-02  1.0000E-02
 148    23.92       23.85       23.91       23.93       23.93       23.91       23.88       23.84       23.79       23.73    
        23.66       23.58       23.48       23.38       23.27       23.17       23.08       22.99       22.91       22.86    
        38.43       46.85       37.76       21.46       21.31       21.12       20.90       20.66       20.40       20.14    
        19.88       19.62       19.34       19.04       18.74       18.42       18.07       17.72       17.36       16.99    
        16.60       16.19       15.76       15.31       14.85       14.37       13.87       13.33       12.77       12.23    
        11.71       11.23       10.77       10.37       10.01       9.761       17.39       17.15       6.359       4.923    
        6.009       4.326      1.0000E-02  1.0000E-02  1.0000E-02  1.0000E-02  1.0000E-02  1.0000E-02  1.0000E-02  1.0000E-02
       1.0000E-02  1.0000E-02  1.0000E-02  1.0000E-02  1.0000E-02  1.0000E-02  1.0000E-02  1.0000E-02  1.0000E-02  1.0000E-02
       1.0000E-02  1.0000E-02  1.0000E-02  1.0000E-02  1.0000E-02  1.0000E-02  1.0000E-02  1.0000E-02  1.0000E-02  1.0000E-02
       1.0000E-02  1.0000E-02  1.0000E-02  1.0000E-02  1.0000E-02  1.0000E-02  1.0000E-02  1.0000E-02  1.0000E-02  1.0000E-02
       1.0000E-02  1.0000E-02  1.0000E-02  1.0000E-02  1.0000E-02  1.0000E-02  1.0000E-02  1.0000E-02  1.0000E-02  1.0000E-02
       1.0000E-02  1.0000E-02  1.0000E-02  1.0000E-02  1.0000E-02  1.0000E-02  1.0000E-02  1.0000E-02  1.0000E-02  1.0000E-02
       1.0000E-02  1.0000E-02  1.0000E-02  1.0000E-02  1.0000E-02  1.0000E-02  1.0000E-02  1.0000E-02  1.0000E-02  1.0000E-02
       1.0000E-02  1.0000E-02  1.0000E-02  1.0000E-02  1.0000E-02  1.0000E-02  1.0000E-02  1.0000E-02  1.0000E-02  1.0000E-02
       1.0000E-02  1.0000E-02  1.0000E-02  1.0000E-02  1.0000E-02  1.0000E-02  1.0000E-02  1.0000E-02  1.0000E-02  1.0000E-02
 149    23.92       23.85       23.78       23.70       23.62       23.54       23.45       23.36       23.26       23.15    
        23.04       22.92       22.78       22.64       22.50       22.34       22.18       22.03       21.86       21.70    
        21.53       21.34       21.15       20.95       20.75       20.53       20.30       20.06       19.81       19.54    
        19.28       19.01       18.73       18.45       18.14       17.83       17.50       17.15       16.80       16.42    
        16.02       15.59       15.14       14.68       14.21       13.71       13.19       12.60       11.98       11.36    
        10.78       10.25       9.753       9.273       8.792       8.310       7.826       7.343      1.0000E-02  1.0000E-02
        5.954      1.0000E-02  1.0000E-02  1.0000E-02  1.0000E-02  1.0000E-02  1.0000E-02  1.0000E-02  1.0000E-02  1.0000E-02
       1.0000E-02  1.0000E-02  1.0000E-02  1.0000E-02  1.0000E-02  1.0000E-02  1.0000E-02  1.0000E-02  1.0000E-02  1.0000E-02
       1.0000E-02  1.0000E-02  1.0000E-02  1.0000E-02  1.0000E-02  1.0000E-02  1.0000E-02  1.0000E-02  1.0000E-02  1.0000E-02
       1.0000E-02  1.0000E-02  1.0000E-02  1.0000E-02  1.0000E-02  1.0000E-02  1.0000E-02  1.0000E-02  1.0000E-02  1.0000E-02
       1.0000E-02  1.0000E-02  1.0000E-02  1.0000E-02  1.0000E-02  1.0000E-02  1.0000E-02  1.0000E-02  1.0000E-02  1.0000E-02
       1.0000E-02  1.0000E-02  1.0000E-02  1.0000E-02  1.0000E-02  1.0000E-02  1.0000E-02  1.0000E-02  1.0000E-02  1.0000E-02
       1.0000E-02  1.0000E-02  1.0000E-02  1.0000E-02  1.0000E-02  1.0000E-02  1.0000E-02  1.0000E-02  1.0000E-02  1.0000E-02
       1.0000E-02  1.0000E-02  1.0000E-02  1.0000E-02  1.0000E-02  1.0000E-02  1.0000E-02  1.0000E-02  1.0000E-02  1.0000E-02
       1.0000E-02  1.0000E-02  1.0000E-02  1.0000E-02  1.0000E-02  1.0000E-02  1.0000E-02  1.0000E-02  1.0000E-02  1.0000E-02
 150    23.92       23.85       23.78       23.70       23.62       23.54       23.45       23.36       23.26       23.15    
        23.04       22.92       22.78       22.64       22.50       22.34       22.18       22.03       21.86       21.70    
        21.53       21.34       21.15       20.95       20.75       20.53       20.30       20.06       19.81       19.54    
        19.28       19.01       18.73       18.45       18.14       17.83       17.50       17.15       16.80       16.42    
        16.02       15.59       15.14       14.68       14.21       13.71       13.19       12.60       11.98       11.36    
        10.78       10.25       9.753       9.273       8.792       8.310       7.826      1.0000E-02  1.0000E-02  1.0000E-02
       1.0000E-02  1.0000E-02  1.0000E-02  1.0000E-02  1.0000E-02  1.0000E-02  1.0000E-02  1.0000E-02  1.0000E-02  1.0000E-02
       1.0000E-02  1.0000E-02  1.0000E-02  1.0000E-02  1.0000E-02  1.0000E-02  1.0000E-02  1.0000E-02  1.0000E-02  1.0000E-02
       1.0000E-02  1.0000E-02  1.0000E-02  1.0000E-02  1.0000E-02  1.0000E-02  1.0000E-02  1.0000E-02  1.0000E-02  1.0000E-02
       1.0000E-02  1.0000E-02  1.0000E-02  1.0000E-02  1.0000E-02  1.0000E-02  1.0000E-02  1.0000E-02  1.0000E-02  1.0000E-02
       1.0000E-02  1.0000E-02  1.0000E-02  1.0000E-02  1.0000E-02  1.0000E-02  1.0000E-02  1.0000E-02  1.0000E-02  1.0000E-02
       1.0000E-02  1.0000E-02  1.0000E-02  1.0000E-02  1.0000E-02  1.0000E-02  1.0000E-02  1.0000E-02  1.0000E-02  1.0000E-02
       1.0000E-02  1.0000E-02  1.0000E-02  1.0000E-02  1.0000E-02  1.0000E-02  1.0000E-02  1.0000E-02  1.0000E-02  1.0000E-02
       1.0000E-02  1.0000E-02  1.0000E-02  1.0000E-02  1.0000E-02  1.0000E-02  1.0000E-02  1.0000E-02  1.0000E-02  1.0000E-02
       1.0000E-02  1.0000E-02  1.0000E-02  1.0000E-02  1.0000E-02  1.0000E-02  1.0000E-02  1.0000E-02  1.0000E-02  1.0000E-02

 HEAD WILL BE SAVED ON UNIT   51 AT END OF TIME STEP    1, STRESS PERIOD    1
1
  VOLUMETRIC BUDGET FOR ENTIRE MODEL AT END OF TIME STEP    1, STRESS PERIOD   1
  ------------------------------------------------------------------------------

     CUMULATIVE VOLUMES      L**3       RATES FOR THIS TIME STEP      L**3/T
     ------------------                 ------------------------

           IN:                                      IN:
           ---                                      ---
             STORAGE =           0.0000               STORAGE =           0.0000
       CONSTANT HEAD =    34833520.0000         CONSTANT HEAD =        9543.4307
            RECHARGE =   765391168.0000              RECHARGE =      209696.2188

            TOTAL IN =   800224704.0000              TOTAL IN =      219239.6562

          OUT:                                     OUT:
          ----                                     ----
             STORAGE =           0.0000               STORAGE =           0.0000
       CONSTANT HEAD =   800225024.0000         CONSTANT HEAD =      219239.7344
            RECHARGE =           0.0000              RECHARGE =           0.0000

           TOTAL OUT =   800225024.0000             TOTAL OUT =      219239.7344

            IN - OUT =        -320.0000              IN - OUT =      -7.8125E-02

 PERCENT DISCREPANCY =          -0.00     PERCENT DISCREPANCY =          -0.00






         TIME SUMMARY AT END OF TIME STEP    1 IN STRESS PERIOD    1
                    SECONDS     MINUTES      HOURS       DAYS        YEARS
                    -----------------------------------------------------------
   TIME STEP LENGTH 3.15360E+08 5.25600E+06  87600.      3650.0      9.9932    
 STRESS PERIOD TIME 3.15360E+08 5.25600E+06  87600.      3650.0      9.9932    
         TOTAL TIME 3.15360E+08 5.25600E+06  87600.      3650.0      9.9932    
1

 HEAD AND DRAWDOWN OBSERVATIONS
 OBSERVATION       OBSERVED           SIMULATED
   NAME              VALUE              VALUE             DIFFERENCE
 --------------------------------------------------------------------
 Obs_0           62.500000000        60.770267487        1.7297325134    
 Obs_1           15.800000191        22.057359695       -6.2573595047    
 Obs_2           1.2000000477        8.2431993484       -7.0431995392    
 Obs_3           7.3000001907        8.4833316803       -1.1833314896    
 Obs_4           7.3000001907        10.022556305       -2.7225561142    
 Obs_5           10.500000000        10.258002281       0.24199771881    
 Obs_6           8.1999998093        10.491762161       -2.2917623520    
 Obs_7           10.699999809        10.280462265       0.41953754425    
 Obs_8           14.550000191        11.264667511        3.2853326797    
 Obs_9           20.299999237        11.954639435        8.3453598022    
 Obs_10          1.2000000477        5.0365400314       -3.8365399837    
 Obs_11          3.0000000000        4.5183053017       -1.5183053017    
 Obs_12          6.9000000954        5.2287344933        1.6712656021    
 Obs_13          6.4000000954        5.9642515182       0.43574857712    
 Obs_14          2.7000000477        4.0147218704       -1.3147218227    
 Obs_15          6.0999999046       0.89192539454        5.2080745697    
 Obs_16         0.10000000149       0.12172370404      -2.17237025499E-02
 Obs_17          8.1000003815        6.0415406227        2.0584597588    
 Obs_18          8.1999998093        6.6343917847        1.5656080246    
 Obs_19          5.0999999046        5.8500962257      -0.75009632111    
 Obs_20          6.0999999046        6.2824759483      -0.18247604370    
 Obs_21          5.5000000000        5.9955735207      -0.49557352066    
 Obs_22          4.9000000954        6.8114185333       -1.9114184380    
 Obs_23          6.0000000000        9.8038244247       -3.8038244247    
 Obs_24          7.3000001907        9.7376728058       -2.4376726151    

 HEAD/DRAWDOWN SUM OF SQUARED DIFFERENCE:    2.66946E+02

 Run end date and time (yyyy/mm/dd hh:mm:ss): 2021/09/07  6:44:28
 Elapsed run time:  0.203 Seconds

