                                  MODFLOW-2005     
      U.S. GEOLOGICAL SURVEY MODULAR FINITE-DIFFERENCE GROUND-WATER FLOW MODEL
                            VERSION 1.12.00 2/3/2017

 LIST FILE: modelface.list
                         UNIT    2

 OPENING modelface.dis
 FILE TYPE:DIS   UNIT   11   STATUS:OLD    
 FORMAT:FORMATTED              ACCESS:SEQUENTIAL          

 OPENING modelface.bas
 FILE TYPE:BAS6   UNIT   13   STATUS:OLD    
 FORMAT:FORMATTED              ACCESS:SEQUENTIAL          

 OPENING modelface.lpf
 FILE TYPE:LPF   UNIT   15   STATUS:OLD    
 FORMAT:FORMATTED              ACCESS:SEQUENTIAL          

 OPENING modelface.rch
 FILE TYPE:RCH   UNIT   19   STATUS:OLD    
 FORMAT:FORMATTED              ACCESS:SEQUENTIAL          

 OPENING modelface.oc
 FILE TYPE:OC   UNIT   14   STATUS:OLD    
 FORMAT:FORMATTED              ACCESS:SEQUENTIAL          

 OPENING modelface.pcg
 FILE TYPE:PCG   UNIT   27   STATUS:OLD    
 FORMAT:FORMATTED              ACCESS:SEQUENTIAL          

 OPENING modelface.hob
 FILE TYPE:HOB   UNIT   39   STATUS:OLD    
 FORMAT:FORMATTED              ACCESS:SEQUENTIAL          

 OPENING modelface.hds
 FILE TYPE:DATA(BINARY)   UNIT   51   STATUS:REPLACE
 FORMAT:BINARY                 ACCESS:SEQUENTIAL          

 OPENING modelface.hob.out
 FILE TYPE:DATA   UNIT    7   STATUS:UNKNOWN
 FORMAT:FORMATTED              ACCESS:SEQUENTIAL          

 BAS -- BASIC PACKAGE, VERSION 7, 5/2/2005 INPUT READ FROM UNIT   13
 
 MODFLOW was compiled using mixed precision
 Precision of REAL variables:           6
 Precision of DOUBLE PRECISION variables:          15

 DISCRETIZATION INPUT DATA READ FROM UNIT   11
 # DIS package for  MODFLOW-2005, generated by Flopy.
    1 LAYERS        75 ROWS        75 COLUMNS
    1 STRESS PERIOD(S) IN SIMULATION
 MODEL TIME UNIT IS DAYS
 MODEL LENGTH UNIT IS METERS
  Confining bed flag for each layer:
   0

                     DELR =   100.000    

                     DELC =   100.000    



           TOP ELEVATION OF LAYER 1
 READING ON UNIT   11 WITH FORMAT: (75E15.6)           

   MODEL LAYER BOTTOM EL. =  -500.000     FOR LAYER   1


 STRESS PERIOD     LENGTH       TIME STEPS     MULTIPLIER FOR DELT    SS FLAG
 ----------------------------------------------------------------------------
        1         3650.000          1                    1.000         SS

 STEADY-STATE SIMULATION



 
 # BAS6 package for  MODFLOW-2005, generated by Flopy.                           
 THE FREE FORMAT OPTION HAS BEEN SELECTED



                     BOUNDARY ARRAY FOR LAYER   1
 READING ON UNIT   13 WITH FORMAT: (75I10)             

 AQUIFER HEAD WILL BE SET TO  -999.99     AT ALL NO-FLOW NODES (IBOUND=0).



                       INITIAL HEAD FOR LAYER   1
 READING ON UNIT   13 WITH FORMAT: (75E15.6)           
 # OC package for  MODFLOW-2005, generated by Flopy.

 OUTPUT CONTROL IS SPECIFIED ONLY AT TIME STEPS FOR WHICH OUTPUT IS DESIRED
 COMPACT CELL-BY-CELL BUDGET FILES WILL BE WRITTEN
 AUXILIARY DATA WILL BE SAVED IN CELL-BY-CELL BUDGET FILES
 HEAD PRINT FORMAT CODE IS   0    DRAWDOWN PRINT FORMAT CODE IS   0
 HEADS WILL BE SAVED ON UNIT   51    DRAWDOWNS WILL BE SAVED ON UNIT    0

 LPF -- LAYER-PROPERTY FLOW PACKAGE, VERSION 7, 5/2/2005
         INPUT READ FROM UNIT   15
 # LPF package for  MODFLOW-2005, generated by Flopy.
 HEAD AT CELLS THAT CONVERT TO DRY= -1.00000E+30
 No named parameters

   LAYER FLAGS:
 LAYER       LAYTYP        LAYAVG         CHANI        LAYVKA        LAYWET
 ---------------------------------------------------------------------------
    1             0             0     1.000E+00             0             0

   INTERPRETATION OF LAYER FLAGS:
                        INTERBLOCK     HORIZONTAL    DATA IN
         LAYER TYPE   TRANSMISSIVITY   ANISOTROPY   ARRAY VKA   WETTABILITY
 LAYER      (LAYTYP)      (LAYAVG)       (CHANI)      (LAYVKA)      (LAYWET)
 ---------------------------------------------------------------------------
    1      CONFINED      HARMONIC     1.000E+00    VERTICAL K  NON-WETTABLE

 WETTING CAPABILITY IS NOT ACTIVE IN ANY LAYER



              HYD. COND. ALONG ROWS FOR LAYER   1
 READING ON UNIT   15 WITH FORMAT: (75E15.6)           

      VERTICAL HYD. COND. =   10.0000     FOR LAYER   1

 RCH -- RECHARGE PACKAGE, VERSION 7, 5/2/2005 INPUT READ FROM UNIT   19
 # RCH package for  MODFLOW-2005, generated by Flopy.
 No named parameters
 OPTION 3 -- RECHARGE TO HIGHEST ACTIVE NODE IN EACH VERTICAL COLUMN


     0 Recharge parameters

 PCG -- CONJUGATE-GRADIENT SOLUTION PACKAGE, VERSION 7, 5/2/2005
 # PCG package for  MODFLOW-2005, generated by Flopy.
 MAXIMUM OF    100 CALLS OF SOLUTION ROUTINE
 MAXIMUM OF     50 INTERNAL ITERATIONS PER CALL TO SOLUTION ROUTINE
 MATRIX PRECONDITIONING TYPE :    1



                                    SOLUTION BY THE CONJUGATE-GRADIENT METHOD
                                   -------------------------------------------
                    MAXIMUM NUMBER OF CALLS TO PCG ROUTINE =      100
                        MAXIMUM ITERATIONS PER CALL TO PCG =       50
                               MATRIX PRECONDITIONING TYPE =        1
        RELAXATION FACTOR (ONLY USED WITH PRECOND. TYPE 1) =    0.10000E+01
 PARAMETER OF POLYNOMIAL PRECOND. = 2 (2) OR IS CALCULATED :        0
                         HEAD CHANGE CRITERION FOR CLOSURE =    0.10000E-05
                     RESIDUAL CHANGE CRITERION FOR CLOSURE =    0.30000E-02
            PCG HEAD AND RESIDUAL CHANGE PRINTOUT INTERVAL =      999
     PRINTING FROM SOLVER IS LIMITED(1) OR SUPPRESSED (>1) =        3
                            STEADY-STATE DAMPING PARAMETER =    0.10000E+01
                               TRANSIENT DAMPING PARAMETER =    0.10000E+01

 OBS2BAS7 -- HEAD OBSERVATIONS, VERSION 2.0, 2/28/2006
 INPUT READ FROM UNIT  39
 # HOB package for  MODFLOW-2005, generated by Flopy.

 NUMBER OF HEADS....................................:   22
   NUMBER OF MULTILAYER HEADS.......................:    0
   MAXIMUM NUMBER OF LAYERS FOR MULTILAYER HEADS....:    0
 HEAD OBSERVATIONS WILL BE SAVED ON UNIT............:    7
 SIMULATED EQUIVALENT HEAD AT DRY CELLS WILL BE:   -999.000    

 OBSERVED HEAD DATA -- TIME OFFSETS ARE MULTIPLIED BY:   1.0000    

                    REFER.
       OBSERVATION  STRESS    TIME
  OBS#    NAME      PERIOD   OFFSET    OBSERVATION
     1 Obs_0            1    0.000       62.50    
 Observation within a steady-state time step has been moved to the end of the time step.
     2 Obs_1            1    0.000       15.80    
 Observation within a steady-state time step has been moved to the end of the time step.
     3 Obs_2            1    0.000       1.200    
 Observation within a steady-state time step has been moved to the end of the time step.
     4 Obs_3            1    0.000       7.300    
 Observation within a steady-state time step has been moved to the end of the time step.
     5 Obs_4            1    0.000       7.300    
 Observation within a steady-state time step has been moved to the end of the time step.
     6 Obs_5            1    0.000       10.50    
 Observation within a steady-state time step has been moved to the end of the time step.
     7 Obs_6            1    0.000       9.450    
 Observation within a steady-state time step has been moved to the end of the time step.
     8 Obs_7            1    0.000       14.55    
 Observation within a steady-state time step has been moved to the end of the time step.
     9 Obs_8            1    0.000       20.30    
 Observation within a steady-state time step has been moved to the end of the time step.
    10 Obs_9            1    0.000       1.200    
 Observation within a steady-state time step has been moved to the end of the time step.
    11 Obs_10           1    0.000       3.000    
 Observation within a steady-state time step has been moved to the end of the time step.
    12 Obs_11           1    0.000       6.650    
 Observation within a steady-state time step has been moved to the end of the time step.
    13 Obs_12           1    0.000       2.700    
 Observation within a steady-state time step has been moved to the end of the time step.
    14 Obs_13           1    0.000       6.100    
 Observation within a steady-state time step has been moved to the end of the time step.
    15 Obs_14           1    0.000      0.1000    
 Observation within a steady-state time step has been moved to the end of the time step.
    16 Obs_15           1    0.000       8.100    
 Observation within a steady-state time step has been moved to the end of the time step.
    17 Obs_16           1    0.000       8.200    
 Observation within a steady-state time step has been moved to the end of the time step.
    18 Obs_17           1    0.000       5.600    
 Observation within a steady-state time step has been moved to the end of the time step.
    19 Obs_18           1    0.000       5.500    
 Observation within a steady-state time step has been moved to the end of the time step.
    20 Obs_19           1    0.000       4.900    
 Observation within a steady-state time step has been moved to the end of the time step.
    21 Obs_20           1    0.000       6.000    
 Observation within a steady-state time step has been moved to the end of the time step.
    22 Obs_21           1    0.000       7.300    
 Observation within a steady-state time step has been moved to the end of the time step.

                                                     HEAD CHANGE
                                                      REFERENCE
        OBSERVATION                   ROW     COL    OBSERVATION
  OBS#     NAME       LAY  ROW  COL  OFFSET  OFFSET   (IF > 0)
     1  Obs_0           1   50   11   0.000   0.000        0
     2  Obs_1           1   74   13   0.000   0.000        0
     3  Obs_2           1   39   15   0.000   0.000        0
     4  Obs_3           1   40   16   0.000   0.000        0
     5  Obs_4           1   42   16   0.000   0.000        0
     6  Obs_5           1   43   16   0.000   0.000        0
     7  Obs_6           1   43   17   0.000   0.000        0
     8  Obs_7           1   44   17   0.000   0.000        0
     9  Obs_8           1   45   17   0.000   0.000        0
    10  Obs_9           1   35   18   0.000   0.000        0
    11  Obs_10          1   39   20   0.000   0.000        0
    12  Obs_11          1   47   30   0.000   0.000        0
    13  Obs_12          1   59   35   0.000   0.000        0
    14  Obs_13          1   58   39   0.000   0.000        0
    15  Obs_14          1   47   41   0.000   0.000        0
    16  Obs_15          1   19   56   0.000   0.000        0
    17  Obs_16          1   19   57   0.000   0.000        0
    18  Obs_17          1   35   64   0.000   0.000        0
    19  Obs_18          1   36   64   0.000   0.000        0
    20  Obs_19          1   34   65   0.000   0.000        0
    21  Obs_20          1   51   74   0.000   0.000        0
    22  Obs_21          1   50   75   0.000   0.000        0
1
                            STRESS PERIOD NO.    1, LENGTH =   3650.000    
                            -----------------------------------------------

                              NUMBER OF TIME STEPS =     1

                               MULTIPLIER FOR DELT =     1.000

                            INITIAL TIME STEP SIZE =   3650.000    



                           RECHARGE
 READING ON UNIT   19 WITH FORMAT: (75E15.6)           
 
 SOLVING FOR HEAD 

 OUTPUT CONTROL FOR STRESS PERIOD    1   TIME STEP    1
    PRINT HEAD FOR ALL LAYERS
    PRINT BUDGET
    SAVE HEAD FOR ALL LAYERS
    SAVE BUDGET
1
              HEAD IN LAYER   1 AT END OF TIME STEP   1 IN STRESS PERIOD    1
  ---------------------------------------------------------------------------

            1           2           3           4           5           6           7           8           9          10
           11          12          13          14          15          16          17          18          19          20
           21          22          23          24          25          26          27          28          29          30
           31          32          33          34          35          36          37          38          39          40
           41          42          43          44          45          46          47          48          49          50
           51          52          53          54          55          56          57          58          59          60
           61          62          63          64          65          66          67          68          69          70
           71          72          73          74          75
 ........................................................................................................................
   1   1.0000E-02  1.0000E-02  1.0000E-02  1.0000E-02  1.0000E-02  1.0000E-02  1.0000E-02  1.0000E-02  1.0000E-02  1.0000E-02
       1.0000E-02  1.0000E-02  1.0000E-02  1.0000E-02  1.0000E-02  1.0000E-02  1.0000E-02  1.0000E-02  1.0000E-02  1.0000E-02
       1.0000E-02  1.0000E-02  1.0000E-02  1.0000E-02  1.0000E-02  1.0000E-02  1.0000E-02  1.0000E-02  1.0000E-02  1.0000E-02
       1.0000E-02  1.0000E-02  1.0000E-02  1.0000E-02  1.0000E-02  1.0000E-02  1.0000E-02  1.0000E-02  1.0000E-02  1.0000E-02
       1.0000E-02  1.0000E-02  1.0000E-02  1.0000E-02  1.0000E-02  1.0000E-02  1.0000E-02  1.0000E-02  1.0000E-02  1.0000E-02
       1.0000E-02  1.0000E-02   1.186      1.0000E-02  1.0000E-02  1.0000E-02  1.0000E-02  1.0000E-02  1.0000E-02  1.0000E-02
       1.0000E-02  1.0000E-02  1.0000E-02  1.0000E-02  1.0000E-02  1.0000E-02  1.0000E-02  1.0000E-02  1.0000E-02  1.0000E-02
       1.0000E-02  1.0000E-02  1.0000E-02  1.0000E-02  1.0000E-02
   2   1.0000E-02  1.0000E-02  1.0000E-02  1.0000E-02  1.0000E-02  1.0000E-02  1.0000E-02  1.0000E-02  1.0000E-02  1.0000E-02
       1.0000E-02  1.0000E-02  1.0000E-02  1.0000E-02  1.0000E-02  1.0000E-02  1.0000E-02  1.0000E-02  1.0000E-02  1.0000E-02
       1.0000E-02  1.0000E-02  1.0000E-02  1.0000E-02  1.0000E-02  1.0000E-02  1.0000E-02  1.0000E-02  1.0000E-02  1.0000E-02
       1.0000E-02  1.0000E-02  1.0000E-02  1.0000E-02  1.0000E-02  1.0000E-02  1.0000E-02  1.0000E-02  1.0000E-02  1.0000E-02
       1.0000E-02  1.0000E-02  1.0000E-02  1.0000E-02  1.0000E-02  1.0000E-02  1.0000E-02  1.0000E-02  1.0000E-02  1.0000E-02
       7.6613E-02  0.1392      0.3014      1.0000E-02  1.0000E-02  1.0000E-02  1.0000E-02  1.0000E-02  1.0000E-02  1.0000E-02
       1.0000E-02  1.0000E-02  1.0000E-02  1.0000E-02  1.0000E-02  1.0000E-02  1.0000E-02  1.0000E-02  1.0000E-02  1.0000E-02
       1.0000E-02  1.0000E-02  1.0000E-02  1.0000E-02  1.0000E-02
   3   1.0000E-02  1.0000E-02  1.0000E-02  1.0000E-02  1.0000E-02  1.0000E-02  1.0000E-02  1.0000E-02  1.0000E-02  1.0000E-02
       1.0000E-02  1.0000E-02  1.0000E-02  1.0000E-02  1.0000E-02  1.0000E-02  1.0000E-02  1.0000E-02  1.0000E-02  1.0000E-02
       1.0000E-02  1.0000E-02  1.0000E-02  1.0000E-02  1.0000E-02  1.0000E-02  1.0000E-02  1.0000E-02  1.0000E-02  1.0000E-02
       1.0000E-02  1.0000E-02  1.0000E-02  1.0000E-02  1.0000E-02  1.0000E-02  1.0000E-02  1.0000E-02  1.0000E-02  1.0000E-02
       1.0000E-02  1.0000E-02  1.0000E-02  1.0000E-02  1.0000E-02  1.0000E-02  1.0000E-02  1.0000E-02  1.0000E-02  9.5418E-02
       0.1591      0.1327      9.5086E-02  1.0000E-02  1.0000E-02  1.0000E-02  1.0000E-02  1.0000E-02  1.0000E-02  1.0000E-02
       1.0000E-02  1.0000E-02  1.0000E-02  1.0000E-02  1.0000E-02  1.0000E-02  1.0000E-02  1.0000E-02  1.0000E-02  1.0000E-02
       1.0000E-02  1.0000E-02  1.0000E-02  1.0000E-02  1.0000E-02
   4   1.0000E-02  1.0000E-02  1.0000E-02  1.0000E-02  1.0000E-02  1.0000E-02  1.0000E-02  1.0000E-02  1.0000E-02  1.0000E-02
       1.0000E-02  1.0000E-02  1.0000E-02  1.0000E-02  1.0000E-02  1.0000E-02  1.0000E-02  1.0000E-02  1.0000E-02  1.0000E-02
       1.0000E-02  1.0000E-02  1.0000E-02  1.0000E-02  1.0000E-02  1.0000E-02  1.0000E-02  1.0000E-02  1.0000E-02  1.0000E-02
       1.0000E-02  1.0000E-02  1.0000E-02  1.0000E-02  1.0000E-02  1.0000E-02  1.0000E-02  1.0000E-02  1.0000E-02  1.0000E-02
       1.0000E-02  1.0000E-02  1.0000E-02  1.0000E-02  1.0000E-02  1.0000E-02  1.0000E-02  1.0000E-02  0.1343      0.2009    
       0.1981      0.1033      2.3918E-02  1.0000E-02  1.0000E-02  1.0000E-02  1.0000E-02  1.0000E-02  1.0000E-02  1.0000E-02
       1.0000E-02  1.0000E-02  1.0000E-02  1.0000E-02  1.0000E-02  1.0000E-02  1.0000E-02  1.0000E-02  1.0000E-02  1.0000E-02
       1.0000E-02  1.0000E-02  1.0000E-02  1.0000E-02  1.0000E-02
   5   1.0000E-02  1.0000E-02  1.0000E-02  1.0000E-02  1.0000E-02  1.0000E-02  1.0000E-02  1.0000E-02  1.0000E-02  1.0000E-02
       1.0000E-02  1.0000E-02  1.0000E-02  1.0000E-02  1.0000E-02  1.0000E-02  1.0000E-02  1.0000E-02  1.0000E-02  1.0000E-02
       1.0000E-02  1.0000E-02  1.0000E-02  1.0000E-02  1.0000E-02  1.0000E-02  1.0000E-02  1.0000E-02  1.0000E-02  1.0000E-02
       1.0000E-02  1.0000E-02  1.0000E-02  1.0000E-02  1.0000E-02  1.0000E-02  1.0000E-02  1.0000E-02  1.0000E-02  1.0000E-02
       1.0000E-02  1.0000E-02  1.0000E-02  1.0000E-02  1.0000E-02  1.0000E-02  0.1276      0.2159      0.2632      0.2543    
       0.1966      7.3341E-02  1.0000E-02  1.0000E-02  1.0000E-02  1.0000E-02  1.0000E-02  1.0000E-02  1.0000E-02  1.0000E-02
       1.0000E-02  1.0000E-02  1.0000E-02  1.0000E-02  1.0000E-02  1.0000E-02  1.0000E-02  1.0000E-02  1.0000E-02  1.0000E-02
       1.0000E-02  1.0000E-02  1.0000E-02  1.0000E-02  1.0000E-02
   6   1.0000E-02  1.0000E-02  1.0000E-02  1.0000E-02  1.0000E-02  1.0000E-02  1.0000E-02  1.0000E-02  1.0000E-02  1.0000E-02
       1.0000E-02  1.0000E-02  1.0000E-02  1.0000E-02  1.0000E-02  1.0000E-02  1.0000E-02  1.0000E-02  1.0000E-02  1.0000E-02
       1.0000E-02  1.0000E-02  1.0000E-02  1.0000E-02  1.0000E-02  1.0000E-02  1.0000E-02  1.0000E-02  1.0000E-02  1.0000E-02
       1.0000E-02  1.0000E-02  1.0000E-02  1.0000E-02  1.0000E-02  1.0000E-02  1.0000E-02  1.0000E-02  1.0000E-02  1.0000E-02
       1.0000E-02  1.0000E-02  1.0000E-02  1.0000E-02  1.0000E-02  1.0000E-02  0.2594      0.3217      0.3125      0.2463    
       0.1113      2.8436E-02  1.0000E-02  1.0000E-02  1.0000E-02  1.0000E-02  1.0000E-02  1.0000E-02  1.0000E-02  1.0000E-02
       1.0000E-02  1.0000E-02  1.0000E-02  1.0000E-02  1.0000E-02  1.0000E-02  1.0000E-02  1.0000E-02  1.0000E-02  1.0000E-02
       1.0000E-02  1.0000E-02  1.0000E-02  1.0000E-02  1.0000E-02
   7   1.0000E-02  1.0000E-02  1.0000E-02  1.0000E-02  1.0000E-02  1.0000E-02  1.0000E-02  1.0000E-02  1.0000E-02  1.0000E-02
       1.0000E-02  1.0000E-02  1.0000E-02  1.0000E-02  1.0000E-02  1.0000E-02  1.0000E-02  1.0000E-02  1.0000E-02  1.0000E-02
       1.0000E-02  1.0000E-02  1.0000E-02  1.0000E-02  1.0000E-02  1.0000E-02  1.0000E-02  1.0000E-02  1.0000E-02  1.0000E-02
       1.0000E-02  1.0000E-02  1.0000E-02  1.0000E-02  1.0000E-02  1.0000E-02  1.0000E-02  1.0000E-02  1.0000E-02  1.0000E-02
       5.1249E-02  1.0000E-02  1.0000E-02  1.0000E-02  0.2572      0.3434      0.3897      0.3724      0.3015      0.1536    
       4.2559E-02  2.2396E-02  1.0000E-02  1.0000E-02  1.0000E-02  1.0000E-02  1.0000E-02  1.0000E-02  1.0000E-02  1.0000E-02
       1.0000E-02  1.0000E-02  1.0000E-02  1.0000E-02  1.0000E-02  1.0000E-02  1.0000E-02  1.0000E-02  1.0000E-02  1.0000E-02
       1.0000E-02  1.0000E-02  1.0000E-02  1.0000E-02  1.0000E-02
   8   1.0000E-02  1.0000E-02  1.0000E-02  1.0000E-02  1.0000E-02  1.0000E-02  1.0000E-02  1.0000E-02  1.0000E-02  1.0000E-02
       1.0000E-02  1.0000E-02  1.0000E-02  1.0000E-02  1.0000E-02  1.0000E-02  1.0000E-02  1.0000E-02  1.0000E-02  1.0000E-02
       1.0000E-02  1.0000E-02  1.0000E-02  1.0000E-02  1.0000E-02  1.0000E-02  1.0000E-02  1.0000E-02  1.0000E-02  1.0000E-02
       1.0000E-02  1.0000E-02  1.0000E-02  1.0000E-02  1.0000E-02  1.0000E-02  1.0000E-02  1.0000E-02  1.0000E-02  1.0000E-02
       0.2757      0.3925      0.4918      0.6569      0.6646      0.5579      0.4379      0.3434      0.2085      4.4337E-02
       2.6384E-02  1.0000E-02  1.0000E-02  1.0000E-02  1.0000E-02  1.0000E-02  1.0000E-02  1.0000E-02  1.0000E-02  1.0000E-02
       1.0000E-02  1.0000E-02  1.0000E-02  1.0000E-02  1.0000E-02  1.0000E-02  1.0000E-02  1.0000E-02  1.0000E-02  1.0000E-02
       1.0000E-02  1.0000E-02  1.0000E-02  1.0000E-02  1.0000E-02
   9   1.0000E-02  1.0000E-02  1.0000E-02  1.0000E-02  1.0000E-02  1.0000E-02  1.0000E-02  1.0000E-02  1.0000E-02  1.0000E-02
       1.0000E-02  1.0000E-02  1.0000E-02  1.0000E-02  1.0000E-02  1.0000E-02  1.0000E-02  1.0000E-02  1.0000E-02  1.0000E-02
       1.0000E-02  1.0000E-02  1.0000E-02  1.0000E-02  1.0000E-02  1.0000E-02  1.0000E-02  1.0000E-02  1.0000E-02  1.0000E-02
       1.0000E-02  1.0000E-02  1.0000E-02  1.0000E-02  1.0000E-02  1.0000E-02  1.0000E-02  1.0000E-02  1.0000E-02  1.0000E-02
       0.7467       1.054       1.159       1.119      0.9424      0.6359      0.3569      0.2543      0.1196      1.0000E-02
       1.0000E-02  1.0000E-02  1.0000E-02  1.0000E-02  1.0000E-02  1.0000E-02  1.0000E-02  1.0000E-02  1.0000E-02  1.0000E-02
       1.0000E-02  1.0000E-02  1.0000E-02  3.5735E-02  1.0000E-02  1.0000E-02  1.0000E-02  1.0000E-02  1.0000E-02  1.0000E-02
       1.0000E-02  1.0000E-02  1.0000E-02  1.0000E-02  1.0000E-02
  10   1.0000E-02  1.0000E-02  1.0000E-02  1.0000E-02  1.0000E-02  1.0000E-02  1.0000E-02  1.0000E-02  1.0000E-02  1.0000E-02
       1.0000E-02  1.0000E-02  1.0000E-02  1.0000E-02  1.0000E-02  1.0000E-02  1.0000E-02  1.0000E-02  1.0000E-02  1.0000E-02
       1.0000E-02  1.0000E-02  1.0000E-02  1.0000E-02  1.0000E-02  1.0000E-02  1.0000E-02  1.0000E-02  1.0000E-02  1.0000E-02
       1.0000E-02  1.0000E-02  1.0000E-02  1.0000E-02  1.0000E-02  0.2587      0.2371      1.0000E-02  1.0000E-02  0.6904    
        1.379       1.655       1.650       1.490       1.197      0.7500      0.3698      0.2418      8.9744E-02  1.0000E-02
       1.0000E-02  1.0000E-02  1.0000E-02  1.0000E-02  1.0000E-02  1.0000E-02  1.0000E-02  0.1597      0.1854      1.0000E-02
       1.0000E-02  0.2370      0.2029      0.1112      1.0000E-02  1.0000E-02  1.0000E-02  1.0000E-02  1.0000E-02  1.0000E-02
       1.0000E-02  1.0000E-02  1.0000E-02  1.0000E-02  1.0000E-02
  11   1.0000E-02  1.0000E-02  1.0000E-02  1.0000E-02  1.0000E-02  1.0000E-02  1.0000E-02  1.0000E-02  1.0000E-02  1.0000E-02
       1.0000E-02  1.0000E-02  1.0000E-02  1.0000E-02  1.0000E-02  1.0000E-02  1.0000E-02  1.0000E-02  1.0000E-02  1.0000E-02
       1.0000E-02  1.0000E-02  1.0000E-02  1.0000E-02  1.0000E-02  1.0000E-02  1.0000E-02  1.0000E-02  1.0000E-02  1.0000E-02
       1.0000E-02  1.0000E-02  8.6332E-02  0.2979      0.6515      0.9391       1.044      0.9007       1.086       1.764    
        2.150       2.250       2.118       1.848       1.443      0.8818      0.4184      0.2379      1.0000E-02  1.0000E-02
       1.0000E-02  1.0000E-02  1.0000E-02  1.0000E-02  1.0000E-02  5.8631E-02  0.3122      0.6676      0.7947      0.7003    
       0.7108      0.7776      0.5543      0.2379      1.0000E-02  1.0000E-02  1.0000E-02  1.0000E-02  1.0000E-02  1.0000E-02
       1.0000E-02  1.0000E-02  1.0000E-02  1.0000E-02  1.0000E-02
  12   1.0000E-02  1.0000E-02  1.0000E-02  1.0000E-02  1.0000E-02  1.0000E-02  1.0000E-02  1.0000E-02  1.0000E-02  1.0000E-02
       1.0000E-02  1.0000E-02  1.0000E-02  1.0000E-02  1.0000E-02  1.0000E-02  1.0000E-02  1.0000E-02  1.0000E-02  1.0000E-02
       1.0000E-02  1.0000E-02  1.0000E-02  1.0000E-02  1.0000E-02  1.0000E-02  1.0000E-02  1.0000E-02  1.0000E-02  1.0000E-02
       1.0000E-02  1.0000E-02  0.1617      0.5508       1.053       1.512       1.893       2.139       2.418       2.764    
        2.881       2.808       2.594       2.207       1.678       1.078      0.5633      0.3155      1.0000E-02  1.0000E-02
       1.0000E-02  1.0000E-02  1.0000E-02  1.0000E-02  1.0000E-02  0.1240      0.7234       1.282       1.573       1.651    
        1.547       1.349      0.9544      0.4264      4.0538E-02  1.0000E-02  1.0000E-02  1.0000E-02  1.0000E-02  1.0000E-02
       1.0000E-02  1.5198E-02  2.1828E-02  1.0000E-02  1.0000E-02
  13   1.0000E-02  1.0000E-02  1.0000E-02  1.0000E-02  1.0000E-02  1.0000E-02  1.0000E-02  1.0000E-02  1.0000E-02  1.0000E-02
       1.0000E-02  1.0000E-02  1.0000E-02  1.0000E-02  1.0000E-02  1.0000E-02  1.0000E-02  1.0000E-02  1.0000E-02  1.0000E-02
       1.0000E-02  1.0000E-02  1.0000E-02  1.0000E-02  1.0000E-02  1.0000E-02  1.0000E-02  1.0000E-02  1.0000E-02  1.0000E-02
       1.0000E-02  1.0000E-02  1.0000E-02  0.4318       1.244       1.952       2.527       2.964       3.297       3.478    
        3.488       3.346       3.023       2.470       1.744       1.227      0.8731      0.4970      1.0000E-02  1.0000E-02
       1.0000E-02  1.0000E-02  1.0000E-02  1.0000E-02  0.1626      0.5888       1.395       1.932       2.237       2.344    
        2.201       1.892       1.405      0.7351      0.1951      1.0000E-02  1.0000E-02  1.0000E-02  1.0000E-02  1.0000E-02
       1.0000E-02  2.7848E-02  2.3815E-02  1.0000E-02  1.0000E-02
  14   1.0000E-02  1.0000E-02  1.0000E-02  1.0000E-02  1.0000E-02  1.0000E-02  1.0000E-02  1.0000E-02  1.0000E-02  1.0000E-02
       1.0000E-02  1.0000E-02  1.0000E-02  1.0000E-02  1.0000E-02  1.0000E-02  1.0000E-02  1.0000E-02  1.0000E-02  1.0000E-02
       1.0000E-02  1.0000E-02  1.0000E-02  1.0000E-02  1.0000E-02  1.0000E-02  1.0000E-02  1.4692E-02  1.0000E-02  1.0000E-02
       1.0000E-02  1.0000E-02  1.0000E-02  1.0000E-02   1.269       2.297       3.087       3.661       3.968       4.057    
        4.049       3.878       3.451       2.626       1.765       1.506       1.199      0.8656      0.5239      0.3193    
       1.0000E-02  0.2398      0.3410      0.3995      0.4131       1.177       2.055       2.597       2.892       2.949    
        2.778       2.400       1.787      0.8390      0.2125      1.0000E-02  1.0000E-02  1.0000E-02  0.1242      0.2020    
       0.1654      5.8449E-02  1.0000E-02  1.0000E-02  1.0000E-02
  15   1.0000E-02  1.0000E-02  1.0000E-02  1.0000E-02  1.0000E-02  1.0000E-02  1.0000E-02  1.0000E-02  1.0000E-02  1.0000E-02
       1.0000E-02  1.0000E-02  1.0000E-02  1.0000E-02  1.0000E-02  1.0000E-02  1.0000E-02  1.0000E-02  1.0000E-02  1.0000E-02
       1.0000E-02  1.0000E-02  1.0000E-02  1.0000E-02  1.0000E-02  1.0000E-02  1.0000E-02  1.0000E-02  0.3221      0.1912    
       1.0000E-02  1.0000E-02  1.0000E-02  1.0000E-02   1.153       2.623       3.628       4.303       4.618       4.713    
        4.700       4.501       4.029       3.267       2.337       1.791       1.544       1.241      0.9820      0.7801    
       0.6077      0.6409      0.7679      0.8530       1.148       2.060       2.804       3.287       3.542       3.569    
        3.364       2.928       2.211       1.090      0.3462      1.0000E-02  1.0000E-02  1.0000E-02  0.4214      0.4591    
       0.2428      6.8614E-02  1.0000E-02  1.0000E-02  1.0000E-02
  16   1.0000E-02  1.0000E-02  1.0000E-02  1.0000E-02  1.0000E-02  1.0000E-02  1.0000E-02  1.0000E-02  1.0000E-02  1.0000E-02
       1.0000E-02  1.0000E-02  1.0000E-02  1.0000E-02  1.0000E-02  1.0000E-02  1.0000E-02  1.0000E-02  1.0000E-02  1.0000E-02
       1.0000E-02  1.0000E-02  1.0000E-02  1.0000E-02  1.0000E-02  1.0000E-02  1.0000E-02  0.6358      0.9919      0.6618    
       1.0000E-02  1.0000E-02  1.0000E-02  1.0000E-02   1.345       3.084       4.175       4.883       5.268       5.395    
        5.358       5.102       4.538       3.699       2.802       2.180       1.918       1.544       1.363       1.173    
       0.9687      0.9834       1.208       1.326       1.928       2.882       3.576       4.000       4.201       4.200    
        3.979       3.511       2.733       1.534      0.7396      0.5305      0.4447      0.6032      0.7481      0.6168    
       0.2631      1.0000E-02  1.0000E-02  1.0000E-02  1.0000E-02
  17   1.0000E-02  1.0000E-02  1.0000E-02  1.0000E-02  1.0000E-02  1.0000E-02  1.0000E-02  1.0000E-02  1.0000E-02  1.0000E-02
       1.0000E-02  1.0000E-02  1.0000E-02  1.0000E-02  1.0000E-02  1.0000E-02  1.0000E-02  1.0000E-02  1.0000E-02  1.0000E-02
       1.0000E-02  1.0000E-02  1.0000E-02  1.0000E-02  0.5125      0.8715       1.189       1.872       2.029       1.765    
       0.8377      1.0000E-02  1.0000E-02  1.0000E-02   1.901       3.787       4.859       5.505       5.877       6.021    
        5.968       5.632       4.978       3.938       3.067       2.696       2.365       2.078       1.724       1.544    
        1.683       1.720       1.731       1.807       2.611       3.690       4.373       4.748       4.893       4.851    
        4.619       4.125       3.324       2.090       1.191       1.002      0.8199       1.101       1.157      0.8721    
       0.3791      2.8540E-02  1.0000E-02  1.0000E-02  1.0000E-02
  18   1.0000E-02  1.0000E-02  1.0000E-02  1.0000E-02  1.0000E-02  1.0000E-02  1.0000E-02  1.0000E-02  1.0000E-02  1.0000E-02
       1.0000E-02  1.0000E-02  1.0000E-02  1.0000E-02  1.0000E-02  1.0000E-02  1.0000E-02  1.0000E-02  1.0000E-02  5.2481E-02
       0.2660      0.5284      0.7797       1.138       1.884       2.397       2.810       3.146       3.225       3.061    
        2.596       1.815       1.703       2.132       3.697       4.873       5.690       6.196       6.503       6.626    
        6.520       6.163       5.531       4.420       3.301       3.112       3.102       2.898       2.178       2.470    
        2.857       2.710       2.145       2.210       3.397       4.591       5.240       5.546       5.611       5.508    
        5.269       4.753       3.911       2.621       1.651       1.430       1.584       1.821       1.683       1.249    
       0.5901      1.0000E-02  1.0000E-02  1.0000E-02  1.0000E-02
  19   1.0000E-02  1.0000E-02  1.0000E-02  1.0000E-02  1.0000E-02  1.0000E-02  1.0000E-02  1.0000E-02  1.0000E-02  1.0000E-02
       1.0000E-02  1.0000E-02  1.0000E-02  1.0000E-02  1.0000E-02  1.0000E-02  1.0000E-02  1.0000E-02  1.0000E-02  1.0000E-02
       0.6285       1.416       1.973       2.530       3.132       3.626       4.038       4.269       4.373       4.332    
        4.194       4.015       4.093       4.530       5.292       5.966       6.514       6.882       7.102       7.185    
        7.064       6.741       6.252       5.550       4.619       4.297       4.422       4.271       3.763       4.072    
        4.272       4.161       3.674       3.840       4.867       5.695       6.159       6.344       6.314       6.158    
        5.890       5.421       4.648       3.357       2.148       2.416       2.750       2.676       2.301       1.610    
       0.6571      1.0000E-02  1.0000E-02  1.0000E-02  1.0000E-02
  20   1.0000E-02  1.0000E-02  1.0000E-02  1.0000E-02  1.0000E-02  1.0000E-02  1.0000E-02  1.0000E-02  1.0000E-02  1.0000E-02
       1.0000E-02  1.0000E-02  1.0000E-02  1.0000E-02  1.0000E-02  1.0000E-02  1.0000E-02  1.0000E-02  1.0000E-02  1.0000E-02
        1.032       2.141       2.908       3.580       4.175       4.620       5.018       5.267       5.388       5.445    
        5.462       5.522       5.685       5.998       6.475       6.897       7.239       7.478       7.598       7.622    
        7.504       7.259       6.920       6.512       6.041       5.733       5.652       5.547       5.416       5.493    
        5.636       5.630       5.525       5.670       6.194       6.679       6.917       6.993       6.939       6.778    
        6.526       6.139       5.572       4.756       3.806       3.930       3.857       3.558       3.004       2.104    
       0.8983      1.0000E-02  1.0000E-02  1.0000E-02  1.0000E-02
  21   1.0000E-02  1.0000E-02  1.0000E-02  1.0000E-02  1.0000E-02  1.0000E-02  1.0000E-02  1.0000E-02  1.0000E-02  1.0000E-02
       1.0000E-02  1.0000E-02  1.0000E-02  1.0000E-02  1.0000E-02  1.0000E-02  1.0000E-02  1.0000E-02  1.0000E-02  0.6862    
        1.967       2.948       3.722       4.394       4.970       5.449       5.824       6.093       6.228       6.344    
        6.435       6.596       6.779       6.968       7.255       7.546       7.791       7.922       7.952       7.946    
        7.831       7.631       7.404       7.151       6.878       6.649       6.545       6.491       6.464       6.533    
        6.647       6.714       6.737       6.859       7.144       7.409       7.518       7.535       7.465       7.317    
        7.099       6.808       6.432       5.955       5.454       5.185       4.886       4.432       3.769       2.755    
        1.495      1.0000E-02  1.0000E-02  1.0000E-02  1.0000E-02
  22   1.0000E-02  1.0000E-02  1.0000E-02  1.0000E-02  1.0000E-02  1.0000E-02  1.0000E-02  1.0000E-02  1.0000E-02  1.0000E-02
       1.0000E-02  1.0000E-02  1.0000E-02  1.0000E-02  1.0000E-02  1.0000E-02  1.0000E-02  1.0000E-02  0.5297       1.744    
        2.805       3.673       4.419       5.055       5.619       6.093       6.436       6.693       6.868       7.011    
        7.137       7.307       7.473       7.611       7.790       7.997       8.142       8.167       8.143       8.075    
        7.966       7.827       7.677       7.522       7.335       7.174       7.139       7.109       7.099       7.158    
        7.256       7.348       7.446       7.575       7.759       7.875       7.922       7.935       7.863       7.740    
        7.575       7.367       7.108       6.807       6.476       6.159       5.780       5.277       4.574       3.456    
        2.584       1.443      1.0000E-02  1.0000E-02  1.0000E-02
  23   1.0000E-02  1.0000E-02  1.0000E-02  1.0000E-02  1.0000E-02  1.0000E-02  1.0000E-02  1.0000E-02  1.0000E-02  1.0000E-02
       1.0000E-02  1.0000E-02  1.0000E-02  1.0000E-02  1.0000E-02  1.0000E-02  1.0000E-02  1.0000E-02   1.072       2.484    
        3.503       4.290       4.980       5.572       6.078       6.520       6.886       7.137       7.327       7.456    
        7.591       7.739       7.887       7.990       8.079       8.190       8.283       8.252       8.152       8.051    
        7.934       7.812       7.711       7.582       7.445       7.364       7.364       7.391       7.421       7.504    
        7.598       7.696       7.825       7.941       8.039       8.120       8.162       8.187       8.125       8.026    
        7.915       7.776       7.609       7.390       7.160       6.887       6.551       6.108       5.482       4.500    
        3.731       3.617       3.703       5.418       10.80    
  24   1.0000E-02  1.0000E-02  1.0000E-02  1.0000E-02  1.0000E-02  1.0000E-02  1.0000E-02  1.0000E-02  1.0000E-02  1.0000E-02
       1.0000E-02  1.0000E-02  1.0000E-02  1.0000E-02  1.0000E-02  1.0000E-02  1.0000E-02  1.0000E-02   1.831       3.147    
        4.087       4.792       5.414       5.945       6.397       6.786       7.122       7.400       7.575       7.686    
        7.807       7.938       8.067       8.134       8.155       8.160       8.171       8.106       7.972       7.836    
        7.703       7.580       7.467       7.370       7.293       7.261       7.283       7.384       7.453       7.570    
        7.671       7.769       7.936       8.041       8.115       8.183       8.229       8.259       8.226       8.162    
        8.095       8.010       7.921       7.768       7.628       7.434       7.211       6.909       6.458       5.654    
        4.870       5.577       6.357       8.028       10.96    
  25   1.0000E-02  1.0000E-02  1.0000E-02  1.0000E-02  1.0000E-02  1.0000E-02  1.0000E-02  1.0000E-02  1.0000E-02  1.0000E-02
       1.0000E-02  1.0000E-02  9.4695E-02  1.0000E-02  1.0000E-02  1.0000E-02  1.0000E-02  0.9549       2.586       3.701    
        4.535       5.172       5.714       6.173       6.564       6.896       7.208       7.454       7.581       7.701    
        7.800       7.887       7.956       8.028       8.025       7.946       7.890       7.785       7.612       7.427    
        7.272       7.126       7.008       6.939       6.893       6.894       6.962       7.082       7.186       7.325    
        7.466       7.597       7.785       7.900       7.986       8.068       8.125       8.195       8.172       8.131    
        8.104       8.091       8.022       7.941       7.875       7.810       7.740       7.626       7.442       7.136    
        6.801       7.433       8.095       9.343       11.09    
  26   1.0000E-02  1.0000E-02  1.0000E-02  1.0000E-02  1.0000E-02  1.0000E-02  1.0000E-02  1.0000E-02  0.1731      0.3855    
       0.4334      1.0000E-02  0.4226      1.0000E-02  1.0000E-02  1.0000E-02  1.0000E-02   1.620       3.239       4.235    
        4.925       5.436       5.895       6.280       6.565       6.835       7.085       7.291       7.411       7.515    
        7.597       7.657       7.690       7.725       7.679       7.547       7.441       7.289       7.057       6.829    
        6.630       6.443       6.314       6.259       6.240       6.270       6.386       6.516       6.662       6.843    
        7.023       7.197       7.399       7.560       7.673       7.771       7.862       7.925       7.928       7.926    
        7.937       7.983       7.954       7.938       7.961       8.011       8.089       8.167       8.226       8.285    
        8.406       8.679       9.215       10.10       11.21    
  27   1.0000E-02  1.0000E-02  1.0000E-02  1.0000E-02  1.0000E-02  1.0000E-02  1.0000E-02  1.0000E-02  0.5038       1.152    
        1.533       1.696       1.708       1.310       1.292       1.388       1.792       3.076       4.019       4.732    
        5.199       5.549       5.897       6.198       6.384       6.592       6.772       6.932       7.056       7.151    
        7.212       7.248       7.251       7.231       7.139       6.972       6.806       6.585       6.322       6.064    
        5.797       5.559       5.404       5.326       5.332       5.415       5.566       5.747       5.928       6.156    
        6.377       6.598       6.812       7.030       7.188       7.309       7.432       7.485       7.512       7.541    
        7.577       7.629       7.676       7.740       7.846       8.010       8.229       8.497       8.750       9.046    
        9.267       9.380       9.947       10.58       11.30    
  28   1.0000E-02  1.0000E-02  1.0000E-02  1.0000E-02  1.0000E-02  1.0000E-02  1.0000E-02  1.0000E-02  0.7946       1.884    
        2.556       2.977       3.160       3.180       3.255       3.418       3.721       4.227       4.671       5.052    
        5.294       5.490       5.680       5.871       6.015       6.166       6.301       6.423       6.545       6.634    
        6.667       6.681       6.667       6.593       6.439       6.249       6.051       5.791       5.470       5.112    
        4.744       4.373       4.147       4.055       4.077       4.228       4.511       4.772       4.986       5.243    
        5.536       5.822       6.090       6.338       6.546       6.706       6.813       6.871       6.901       6.938    
        6.992       7.091       7.200       7.327       7.513       7.783       8.128       8.553       8.969       9.424    
        9.792       10.12       10.57       10.92       11.37    
  29   1.0000E-02  1.0000E-02  1.0000E-02  1.0000E-02  1.0000E-02  1.0000E-02  1.0000E-02  1.0000E-02   1.311       2.736    
        3.588       4.106       4.409       4.552       4.632       4.748       4.883       5.038       5.149       5.243    
        5.271       5.245       5.286       5.381       5.469       5.570       5.661       5.746       5.861       5.960    
        5.997       6.005       5.964       5.849       5.645       5.425       5.160       4.820       4.401       3.864    
        3.333       2.573       2.308       2.220       2.238       2.428       3.077       3.448       3.727       4.050    
        4.485       4.880       5.236       5.545       5.796       5.966       6.022       5.975       5.959       5.995    
        6.083       6.220       6.404       6.620       6.912       7.322       7.785       8.309       8.927       9.521    
        10.07       10.59       10.86       11.13       11.41    
  30   1.0000E-02  1.0000E-02  1.0000E-02  1.0000E-02  1.0000E-02  1.0000E-02  1.0000E-02  0.8064       2.567       3.823    
        4.676       5.200       5.508       5.666       5.726       5.724       5.658       5.586       5.470       5.305    
        5.064       4.769       4.643       4.644       4.745       4.814       4.848       4.903       5.000       5.119    
        5.202       5.217       5.135       4.966       4.726       4.458       4.091       3.607       3.035       2.184    
        1.646       1.077       1.004      0.9603      0.9472      0.9681       1.422       1.737       1.964       2.280    
        3.081       3.660       4.200       4.623       4.924       5.098       5.044       4.688       4.563       4.589    
        4.726       4.932       5.192       5.486       5.863       6.590       7.204       7.838       8.652       9.447    
        10.17       10.74       11.12       11.32       11.44    
  31   1.0000E-02  1.0000E-02  1.0000E-02  1.0000E-02  1.0000E-02  0.3824      1.0000E-02   1.841       3.776       5.005    
        5.781       6.257       6.519       6.626       6.616       6.505       6.289       6.030       5.681       5.226    
        4.636       3.946       3.657       3.558       3.761       3.793       3.779       3.814       3.929       4.119    
        4.238       4.273       4.173       3.944       3.587       3.260       2.789       2.018       1.462      0.8810    
       0.7954      0.7805      0.7269      0.6884      0.6683      0.6513      0.5932      0.6358      0.7249      0.8260    
        1.427       2.010       2.907       3.547       3.946       4.130       4.015       3.690       3.524       3.570    
        3.755       4.021       4.330       4.642       4.900       5.610       6.284       6.930       8.146       9.295    
        10.24       10.88       11.29       11.39       11.44    
  32   1.0000E-02  1.0000E-02  1.0000E-02  1.0000E-02   1.006       1.985       2.284       3.983       5.330       6.280    
        6.902       7.277       7.461       7.507       7.392       7.132       6.809       6.376       5.790       5.053    
        4.093       3.177       2.863       2.610       2.530       2.373       2.274       2.264       2.384       2.863    
        3.061       3.099       2.987       2.676       2.047       1.743       1.330      0.7851      0.6780      0.6240    
       0.5516      0.4735      0.3856      0.3503      0.3347      0.3273      0.3232      0.3733      0.4761      0.5607    
       0.6080      0.7092       1.376       2.315       2.864       3.078       3.094       3.163       3.104       3.238    
        3.483       3.802       4.156       4.517       4.871       5.253       5.626       5.937       7.441       9.187    
        10.36       11.04       11.40       11.48       11.44    
  33   1.0000E-02  1.0000E-02  1.0000E-02  0.8157       2.616       3.886       4.844       6.003       6.914       7.576    
        7.994       8.228       8.338       8.408       8.190       7.665       7.022       6.514       5.790       4.944    
        4.050       3.211       2.617       2.157       1.670       1.376       1.214       1.141       1.126       1.451    
        1.612       1.617       1.535       1.271      0.8379      0.7484      0.6490      0.5772      0.4601      0.3383    
       0.2641      0.1766      1.0000E-02  1.0000E-02  1.0000E-02  1.0000E-02  1.0000E-02  1.0000E-02  0.1985      0.2892    
       0.3890      0.4604      0.4775      0.9941       1.689       1.890       1.738       2.036       2.485       2.749    
        3.099       3.505       3.931       4.355       4.771       5.170       5.547       5.828       7.412       9.488    
        10.65       11.23       11.52       11.57       11.42    
  34   1.0000E-02  1.0000E-02  1.0000E-02   1.948       4.242       5.787       6.894       7.782       8.462       8.841    
        9.013       9.065       9.100       8.967       8.690       8.189       7.446       6.727       5.897       4.958    
        3.959       2.981       2.176       1.657       1.302       1.060      0.9209      0.8523      0.8129      0.7156    
       0.6793      0.6529      0.6262      0.6031      0.6156      0.5624      0.4747      0.3622      0.2022      1.0000E-02
       1.0000E-02  1.0000E-02  1.0000E-02  1.0000E-02  1.0000E-02  1.0000E-02  1.0000E-02  1.0000E-02  1.0000E-02  1.0000E-02
       0.1547      0.2178      0.2347      0.2259      0.5515      0.6755      0.5494      0.9294       1.612       2.124    
        2.622       3.137       3.661       4.161       4.647       5.081       5.520       5.835       7.775       9.874    
        10.97       11.41       11.59       11.61       11.40    
  35   1.0000E-02  1.0000E-02  1.0000E-02   3.962       6.249       7.769       8.799       9.474       9.927       10.07    
        9.936       9.738       9.565       9.293       8.973       8.489       7.820       7.024       6.091       5.008    
        3.800       2.534       1.376      0.9301      0.7666      0.5947      0.4960      0.4797      0.5071      0.4959    
       0.4820      0.4675      0.4452      0.4234      0.4068      0.3632      0.2838      0.1577      1.0000E-02  1.0000E-02
       1.0000E-02  1.0000E-02  1.0000E-02  1.0000E-02  1.0000E-02  1.0000E-02  1.0000E-02  1.0000E-02  1.0000E-02  1.0000E-02
       1.0000E-02  1.0000E-02  1.0000E-02  1.0000E-02  4.9101E-02  5.2509E-02  1.0000E-02  0.4286      0.8842       1.472    
        2.092       2.725       3.370       3.941       4.535       4.940       6.181       7.429       9.245       10.66    
        11.29       11.53       11.66       11.62       11.35    
  36   1.0000E-02   2.575       4.876       7.066       8.715       9.898       10.65       11.13       11.33       11.24    
        10.72       10.06       9.853       9.640       9.396       8.955       8.300       7.446       6.403       5.148    
        3.653       1.915      1.0000E-02  1.0000E-02  0.1893      1.0000E-02  1.0000E-02  1.0000E-02  0.1897      0.2331    
       0.2419      0.2500      0.2262      0.2087      0.1934      0.1663      0.1120      1.0000E-02  1.0000E-02  1.0000E-02
       1.0000E-02  1.0000E-02  1.0000E-02  1.0000E-02  1.0000E-02  1.0000E-02  1.0000E-02  1.0000E-02  1.0000E-02  1.0000E-02
       1.0000E-02  1.0000E-02  1.0000E-02  1.0000E-02  1.0000E-02  1.0000E-02  1.0000E-02  1.0000E-02  1.0000E-02  0.7596    
        1.522       2.270       3.109       3.638       4.990       6.292       7.926       9.205       10.44       11.17    
        11.46       11.64       11.71       11.64       11.30    
  37    13.61       9.793       9.516       10.31       11.25       12.03       12.53       12.82       12.80       12.54    
        11.97       10.90       10.11       9.989       9.989       9.610       8.956       8.047       6.888       5.484    
        3.709       1.741      1.0000E-02  1.0000E-02  1.0000E-02  1.0000E-02  1.0000E-02  1.0000E-02  1.0000E-02  1.0000E-02
       1.0000E-02  6.3491E-02  1.0000E-02  1.0000E-02  1.0000E-02  1.0000E-02  1.0000E-02  1.0000E-02  1.0000E-02  1.0000E-02
       1.0000E-02  1.0000E-02  1.0000E-02  1.0000E-02  1.0000E-02  1.0000E-02  1.0000E-02  1.0000E-02  1.0000E-02  1.0000E-02
       1.0000E-02  1.0000E-02  1.0000E-02  1.0000E-02  1.0000E-02  1.0000E-02  1.0000E-02  1.0000E-02  1.0000E-02  1.0000E-02
       0.9385       1.682       3.084       4.589       6.374       7.916       9.385       10.39       11.08       11.39    
        11.61       11.75       11.75       11.61       11.24    
  38    14.33       13.07       12.74       13.02       13.55       14.05       14.33       14.45       14.29       13.96    
        13.39       12.56       11.59       11.37       10.95       10.52       9.836       8.876       7.588       6.067    
        3.925       1.592      1.0000E-02  1.0000E-02  1.0000E-02  1.0000E-02  1.0000E-02  1.0000E-02  1.0000E-02  1.0000E-02
       1.0000E-02  1.0000E-02  1.0000E-02  1.0000E-02  1.0000E-02  1.0000E-02  1.0000E-02  1.0000E-02  1.0000E-02  1.0000E-02
       1.0000E-02  1.0000E-02  1.0000E-02  1.0000E-02  1.0000E-02  1.0000E-02  1.0000E-02  1.0000E-02  1.0000E-02  1.0000E-02
       1.0000E-02  1.0000E-02  1.0000E-02  1.0000E-02  1.0000E-02  1.0000E-02  1.0000E-02  1.0000E-02  1.0000E-02  1.0000E-02
       0.5055       1.735       3.592       5.397       7.218       8.980       10.21       10.83       11.27       11.55    
        11.73       11.83       11.77       11.55       11.17    
  39    15.09       14.97       15.00       15.23       15.56       15.87       16.04       16.00       15.76       15.36    
        14.78       14.05       13.24       12.90       12.24       11.67       10.96       10.01       8.752       7.254    
        4.193      0.9379      1.0000E-02  1.0000E-02  1.0000E-02  1.0000E-02  1.0000E-02  1.0000E-02  1.0000E-02  1.0000E-02
       1.0000E-02  1.0000E-02  1.0000E-02  1.0000E-02  1.0000E-02  1.0000E-02  1.0000E-02  1.0000E-02  1.0000E-02  1.0000E-02
       1.0000E-02  1.0000E-02  1.0000E-02  1.0000E-02  1.0000E-02  1.0000E-02  1.0000E-02  1.0000E-02  1.0000E-02  1.0000E-02
       1.0000E-02  1.0000E-02  1.0000E-02  1.0000E-02  1.0000E-02  1.0000E-02  1.0000E-02  1.0000E-02  1.0000E-02  1.0000E-02
       0.6281       1.659       3.459       5.555       7.569       9.388       10.46       11.02       11.41       11.70    
        11.85       11.92       11.79       11.54       11.10    
  40    15.90       16.35       16.71       17.01       17.31       17.48       17.55       17.45       17.15       16.71    
        16.12       15.31       14.41       13.68       13.39       12.93       12.28       11.41       10.11       8.395    
        4.637       1.102      0.7672      0.5458      0.4011      0.2042      0.1313      1.0000E-02  1.0000E-02  1.0000E-02
       1.0000E-02  1.0000E-02  1.0000E-02  1.0000E-02  1.0000E-02  1.0000E-02  1.0000E-02  1.0000E-02  1.0000E-02  1.0000E-02
       1.0000E-02  1.0000E-02  1.0000E-02  1.0000E-02  1.0000E-02  1.0000E-02  1.0000E-02  1.0000E-02  1.0000E-02  1.0000E-02
       1.0000E-02  1.0000E-02  1.0000E-02  1.0000E-02  1.0000E-02  1.0000E-02  1.0000E-02  1.0000E-02  1.0000E-02  1.0000E-02
       0.4901      0.8627       2.372       5.190       7.629       9.470       10.65       11.24       11.58       11.85    
        12.06       12.06       11.81       11.51       11.03    
  41    16.74       17.50       18.10       18.47       18.77       18.95       18.90       18.74       18.43       18.00    
        17.38       16.33       15.09       14.60       14.65       14.32       13.79       13.17       11.95       10.22    
        7.330       3.278       1.469       1.047      0.8760       1.158      0.3222      0.1909      0.1254      1.0000E-02
       1.0000E-02  1.0000E-02  1.0000E-02  1.0000E-02  1.0000E-02  1.0000E-02  1.0000E-02  1.0000E-02  1.0000E-02  1.0000E-02
       1.0000E-02  1.0000E-02  1.0000E-02  1.0000E-02  1.0000E-02  1.0000E-02  1.0000E-02  1.0000E-02  1.0000E-02  1.0000E-02
       1.0000E-02  1.0000E-02  1.0000E-02  1.0000E-02  1.0000E-02  1.0000E-02  1.0000E-02  1.0000E-02  1.0000E-02  0.2095    
       0.6262       1.031       1.521       4.549       7.689       9.629       10.78       11.32       11.76       12.12    
        12.29       12.16       11.82       11.45       10.94    
  42    17.60       18.53       19.22       19.68       19.99       20.18       20.12       19.95       19.66       19.29    
        18.83       18.24       17.53       16.87       16.26       15.89       15.35       14.35       14.06       12.57    
        10.11       6.103       2.387       3.493       3.891       4.273       2.918       1.706      0.3091      0.1360    
       1.0000E-02  1.0000E-02  1.0000E-02  1.0000E-02  1.0000E-02  1.0000E-02  1.0000E-02  1.0000E-02  1.0000E-02  1.0000E-02
       5.9770E-02  2.8258E-02  1.0000E-02  1.0000E-02  1.0000E-02  1.0000E-02  1.0000E-02  1.0000E-02  1.0000E-02  1.0000E-02
       1.0000E-02  1.0000E-02  1.0000E-02  1.0000E-02  1.0000E-02  1.0000E-02  1.0000E-02  1.0000E-02  1.0000E-02  0.4188    
       0.7507       1.765       3.247       5.886       8.286       9.944       10.82       11.28       11.85       12.27    
        12.39       12.18       11.77       11.38       10.84    
  43    18.48       19.52       20.24       20.76       21.08       21.23       21.22       21.08       20.83       20.52    
        20.21       20.03       19.75       19.20       18.13       17.59       17.27       16.71       16.47       15.37    
        13.61       11.18       8.199       9.001       8.905       8.229       6.903       5.147       2.739       1.326    
       0.5761      0.4686      0.2930      1.0000E-02  1.0000E-02  9.9099E-02  7.7478E-02  6.9356E-02  5.9155E-02  5.8835E-02
       0.1107      1.8791E-02  1.2660E-02  1.0000E-02  1.0000E-02  1.0000E-02  1.0000E-02  1.0000E-02  1.0000E-02  1.0000E-02
       1.0000E-02  1.0000E-02  1.0000E-02  1.0000E-02  1.0000E-02  1.0000E-02  1.0000E-02  1.0000E-02  1.0000E-02  0.5041    
        1.392       2.910       4.730       6.781       8.803       10.07       10.71       11.23       11.83       12.24    
        12.30       12.04       11.59       11.23       10.73    
  44    19.39       20.47       21.22       21.75       22.08       22.24       22.26       22.14       21.85       21.55    
        21.23       21.06       20.55       20.04       19.44       19.04       18.84       19.24       18.84       18.17    
        17.13       15.90       14.60       14.11       13.33       12.02       10.32       8.184       5.537       2.825    
        1.260       1.057      0.7748      0.5092      0.3130      0.2992      0.6820      0.6706      0.3643      9.4272E-02
       3.9902E-02  1.0000E-02  1.0000E-02  1.0000E-02  1.0000E-02  1.0000E-02  1.0000E-02  1.0000E-02  1.0000E-02  1.0000E-02
       1.0000E-02  1.0000E-02  1.0000E-02  1.0000E-02  1.0000E-02  1.0000E-02  1.0000E-02  1.0000E-02  1.0000E-02  6.9689E-02
        1.022       3.043       5.154       7.113       8.897       10.02       10.59       11.20       11.75       12.03    
        12.00       11.67       11.22       10.96       10.61    
  45    20.33       21.38       22.16       22.70       23.01       23.18       23.22       23.11       22.98       22.64    
        22.24       21.66       21.33       20.93       20.51       20.23       20.18       20.60       20.71       20.79    
        20.44       19.80       18.98       18.15       17.07       15.55       13.54       10.92       7.464       3.731    
        2.008       1.704       1.222       1.006       1.577       1.811       1.957       1.418      0.6013      0.1485    
       1.0000E-02  1.0000E-02  1.0000E-02  1.0000E-02  1.0000E-02  1.0000E-02  1.0000E-02  1.0000E-02  1.0000E-02  1.0000E-02
       1.0000E-02  1.0000E-02  1.0000E-02  1.0000E-02  1.0000E-02  1.0000E-02  1.0000E-02  1.0000E-02  1.0000E-02  1.0000E-02
       0.2674       2.347       5.030       7.041       8.634       9.777       10.50       11.06       11.45       11.57    
        11.41       10.98       10.52       10.52       10.48    
  46    21.28       22.28       23.06       23.62       23.93       24.11       24.14       24.20       24.09       23.53    
        23.00       22.51       22.15       21.78       21.41       21.13       20.99       21.09       22.18       23.26    
        23.51       23.25       22.59       21.68       20.49       18.90       16.75       13.70       8.789       3.758    
        2.896       2.506       3.197       3.537       4.190       3.976       3.244       1.740      0.5240      0.3124    
       0.1294      1.0000E-02  1.0000E-02  1.0000E-02  1.0000E-02  1.0000E-02  1.0000E-02  1.0000E-02  1.0000E-02  1.0000E-02
       1.0000E-02  1.0000E-02  1.0000E-02  1.0000E-02  1.0000E-02  1.0000E-02  1.0000E-02  1.0000E-02  1.0000E-02  0.1164    
       0.3177       2.300       4.897       6.848       8.332       9.419       10.16       10.66       10.92       10.88    
        10.51       9.835       9.193       9.814       10.32    
  47    22.21       23.19       24.01       24.59       24.89       25.03       25.22       25.33       25.05       24.24    
        23.47       23.22       22.92       22.57       22.15       21.83       21.53       21.56       23.88       25.80    
        26.51       26.51       25.98       25.07       23.86       22.30       20.24       17.40       13.59       8.990    
        7.153       6.511       7.243       7.191       6.841       5.996       4.602       2.287      0.6195      0.4223    
       0.2098      1.0000E-02  1.0000E-02  1.0000E-02  1.0000E-02  1.0000E-02  1.0000E-02  1.0000E-02  1.0000E-02  1.0000E-02
       1.0000E-02  1.0000E-02  1.0000E-02  1.0000E-02  1.0000E-02  1.0000E-02  1.0000E-02  1.0000E-02  1.0000E-02  0.3666    
        1.083       2.841       4.836       6.580       7.946       8.975       9.676       10.08       10.20       9.952    
        9.304       8.213       7.739       8.899       10.15    
  48    23.07       24.14       25.02       25.68       25.86       26.19       26.31       26.27       25.88       24.94    
        24.10       23.92       23.70       23.38       22.72       22.46       23.56       24.83       27.24       28.80    
        29.55       29.58       29.10       28.24       27.05       25.54       23.63       21.15       18.14       15.18    
        13.19       11.92       11.18       10.34       9.297       7.945       6.063       3.222      0.7648      0.5257    
       0.3050      0.1201      1.0000E-02  1.0000E-02  1.0000E-02  1.0000E-02  1.0000E-02  1.0000E-02  1.0000E-02  1.0000E-02
       1.0000E-02  1.0000E-02  1.0000E-02  1.0000E-02  1.0000E-02  1.0000E-02  1.0000E-02  1.0000E-02  1.0000E-02  0.3338    
        1.018       2.701       4.577       6.196       7.476       8.434       9.046       9.343       9.310       8.874    
        7.946       6.953       7.262       8.407       9.970    
  49    23.88       25.04       25.99       26.41       26.59       27.00       27.10       27.01       26.58       25.61    
        24.78       24.64       24.51       24.50       24.55       25.36       27.51       29.08       30.68       31.88    
        32.48       32.44       31.95       31.10       29.94       28.46       26.66       24.47       21.90       19.42    
        17.40       15.70       14.28       12.92       11.46       9.837       7.868       5.481       2.902       1.462    
       0.3471      0.1834      1.0000E-02  1.0000E-02  1.0000E-02  1.0000E-02  1.0000E-02  1.0000E-02  1.0000E-02  1.0000E-02
       1.0000E-02  1.0000E-02  1.0000E-02  1.0000E-02  1.0000E-02  1.0000E-02  1.0000E-02  1.0000E-02  1.0000E-02  1.0000E-02
       0.1841       1.900       4.058       5.679       6.911       7.787       8.316       8.501       8.347       7.808    
        6.966       6.446       6.898       8.042       9.748    
  50    24.64       25.80       26.44       26.55       26.95       27.29       27.36       27.55       27.19       26.23    
        25.48       25.30       25.16       25.54       26.77       28.81       30.88       32.50       33.85       34.85    
        35.30       35.12       34.56       33.66       32.53       31.04       29.17       27.07       24.76       22.45    
        20.39       18.40       16.52       14.85       13.14       11.34       9.392       7.272       5.173       3.363    
        1.413      0.2695      0.1382      8.2673E-02  5.3991E-02  3.4107E-02  1.0000E-02  1.0000E-02  1.0000E-02  1.0000E-02
       1.0000E-02  1.0000E-02  1.0000E-02  1.0000E-02  1.0000E-02  1.0000E-02  1.0000E-02  1.0000E-02  1.0000E-02  1.0000E-02
       0.1469       1.572       3.590       5.110       6.269       7.057       7.498       7.562       7.274       6.537    
        5.472       5.407       6.221       7.748       9.506    
  51    25.31       26.03       26.47       26.73       27.05       27.28       27.74       28.31       27.69       26.47    
        26.24       25.87       26.36       26.79       28.60       31.44       33.71       35.40       36.65       37.47    
        37.75       37.50       36.87       35.91       34.72       33.22       31.32       29.18       26.92       24.63    
        22.40       20.21       18.09       16.15       14.26       12.32       10.33       8.348       6.445       4.696    
        3.041       1.545       1.005      0.7415      0.5496      0.4224      0.2144      7.7582E-02  1.0000E-02  1.0000E-02
       1.0000E-02  1.0000E-02  1.0000E-02  1.0000E-02  1.0000E-02  1.0000E-02  1.0000E-02  1.0000E-02  1.0000E-02  1.0000E-02
       0.1102       1.309       3.111       4.498       5.550       6.245       6.595       6.557       6.089       5.010    
        3.809       4.184       4.726       6.889       9.319    
  52    25.88       26.31       26.63       26.84       27.42       28.10       28.99       29.64       29.23       27.80    
        27.05       27.35       28.02       27.85       30.28       33.79       36.22       37.90       39.05       39.72    
        39.90       39.53       38.84       37.87       36.64       35.11       33.25       31.06       28.68       26.28    
        23.85       21.42       19.11       16.95       14.87       12.81       10.79       8.840       7.026       5.362    
        3.843       2.581       1.826       1.365       1.059      0.8057      0.3890      0.1026      1.0000E-02  1.0000E-02
       1.0000E-02  1.0000E-02  1.0000E-02  1.0000E-02  1.0000E-02  1.0000E-02  1.0000E-02  1.0000E-02  1.0000E-02  1.0000E-02
       6.9593E-02   1.058       2.613       3.834       4.758       5.349       5.619       5.524       5.013       4.043    
        3.188       3.244       3.172       5.459       8.945    
  53    26.35       26.63       26.86       27.01       28.14       29.35       30.53       31.28       31.08       29.66    
        27.71       29.38       29.90       28.63       32.29       36.21       38.60       40.15       41.15       41.68    
        41.69       41.30       40.61       39.66       38.42       36.84       34.92       32.66       30.14       27.50    
        24.81       22.12       19.55       17.19       14.96       12.80       10.75       8.825       6.999       5.338    
        3.887       2.711       1.855       1.354       1.061      0.6683      0.1921      1.0000E-02  1.0000E-02  1.0000E-02
       1.0000E-02  1.0000E-02  1.0000E-02  1.0000E-02  1.0000E-02  1.0000E-02  1.0000E-02  1.0000E-02  1.0000E-02  1.0000E-02
       1.0000E-02  0.6260       1.974       3.069       3.872       4.353       4.531       4.431       3.985       3.215    
        2.405       2.407       2.457       4.458       8.061    
  54    26.72       26.94       27.10       27.83       29.39       30.67       32.26       33.31       33.56       33.10    
        31.92       33.40       33.94       33.49       36.55       39.21       41.07       42.27       42.97       43.32    
        43.28       42.93       42.29       41.33       40.06       38.42       36.38       33.97       31.26       28.30    
        25.26       22.22       19.22       16.66       14.42       12.24       10.14       8.207       6.383       4.681    
        3.215       2.123       1.142      0.8000      0.6444      0.2494      1.0000E-02  1.0000E-02  1.0000E-02  1.0000E-02
       1.0000E-02  1.0000E-02  1.0000E-02  1.0000E-02  1.0000E-02  1.0000E-02  1.0000E-02  1.0000E-02  1.0000E-02  1.0000E-02
       1.0000E-02  0.1161       1.127       2.204       2.851       3.212       3.270       3.241       2.934       2.262    
        1.548       1.484       1.427       3.228       6.839    
  55    27.01       27.25       27.37       28.77       30.54       32.36       34.33       35.55       36.22       36.52    
        36.71       37.57       38.12       38.77       40.45       42.14       43.41       44.24       44.68       44.89    
        44.82       44.43       43.77       42.82       41.54       39.79       37.59       35.01       31.99       28.54    
        25.16       21.74       17.91       15.15       13.08       11.09       8.970       6.900       5.113       3.423    
        1.754      0.8359      0.1239      9.9490E-02  0.1315      1.0000E-02  1.0000E-02  1.0000E-02  1.0000E-02  1.0000E-02
       1.0000E-02  1.0000E-02  1.0000E-02  1.0000E-02  1.0000E-02  1.0000E-02  1.0000E-02  1.0000E-02  1.0000E-02  1.0000E-02
       1.0000E-02  9.5764E-02  0.7290       1.355       1.651       1.864       1.610       1.945       1.853       1.219    
       0.6805      0.5308      1.0000E-02   1.526       5.541    
  56    27.22       27.62       28.32       30.12       31.88       34.22       36.40       37.75       38.73       39.43    
        40.06       40.82       41.47       42.32       43.49       44.57       45.43       46.06       46.32       46.38    
        46.22       45.72       45.00       43.96       42.49       40.69       38.48       35.75       32.35       28.11    
        24.77       20.88       14.91       12.39       10.92       9.430       7.236       4.672       3.183       1.714    
       0.3692      0.1407      1.0000E-02  1.0000E-02  1.0000E-02  1.0000E-02  1.0000E-02  1.0000E-02  1.0000E-02  1.0000E-02
       1.0000E-02  1.0000E-02  1.0000E-02  1.0000E-02  1.0000E-02  1.0000E-02  1.0000E-02  1.0000E-02  1.0000E-02  1.0000E-02
       1.0000E-02  0.1724      0.2973      0.3598      1.0000E-02  0.4770      0.1736      0.6146      0.6239      0.3389    
       1.0000E-02  1.0000E-02  1.0000E-02  1.0000E-02  1.0000E-02
  57    27.35       27.91       29.25       31.15       33.52       36.17       38.36       39.80       40.92       41.81    
        42.60       43.36       44.11       44.92       45.76       46.45       47.03       47.27       47.33       47.26    
        47.08       46.65       45.88       44.69       43.13       41.25       38.96       36.17       32.84       28.93    
        24.41       17.66       11.08       10.04       9.299       7.814       5.036       2.699       1.969       1.122    
       0.3535      1.0000E-02  1.0000E-02  1.0000E-02  1.0000E-02  1.0000E-02  1.0000E-02  1.0000E-02  1.0000E-02  1.0000E-02
       1.0000E-02  1.0000E-02  1.0000E-02  1.0000E-02  1.0000E-02  1.0000E-02  1.0000E-02  1.0000E-02  1.0000E-02  1.0000E-02
       4.4749E-02  5.5197E-02  1.0000E-02  1.0000E-02  1.0000E-02  1.0000E-02  1.0000E-02  1.0000E-02  1.0000E-02  1.0000E-02
       1.0000E-02  1.0000E-02  1.0000E-02  1.0000E-02  1.0000E-02
  58    27.41       28.72       30.44       32.74       35.49       37.84       39.90       41.47       42.71       43.73    
        44.62       45.44       46.17       46.88       47.51       47.82       47.96       47.89       47.82       47.68    
        47.44       47.02       46.44       45.31       43.56       41.55       39.21       36.46       33.22       29.37    
        24.94       19.53       13.09       9.545       8.535       6.652       4.595       3.074       1.979      0.9740    
       1.0000E-02  1.0000E-02  1.0000E-02  1.0000E-02  1.0000E-02  1.0000E-02  1.0000E-02  1.0000E-02  1.0000E-02  1.0000E-02
       1.0000E-02  1.0000E-02  1.0000E-02  1.0000E-02  1.0000E-02  1.0000E-02  1.0000E-02  1.0000E-02  1.0000E-02  1.0000E-02
       1.0000E-02  1.0000E-02  1.0000E-02  1.0000E-02  1.0000E-02  1.0000E-02  1.0000E-02  1.0000E-02  1.0000E-02  1.0000E-02
       1.0000E-02  1.0000E-02  1.0000E-02  1.0000E-02  1.0000E-02
  59    27.42       29.68       31.94       34.41       36.83       39.08       41.10       42.75       44.09       45.21    
        46.19       47.09       47.76       48.22       48.48       48.52       48.43       48.32       48.16       47.94    
        47.63       47.21       46.66       45.59       43.78       41.67       39.28       36.53       33.36       29.74    
        25.70       21.09       16.25       12.03       9.589       6.688       3.982       3.008       1.883      0.9371    
       1.0000E-02  1.0000E-02  1.0000E-02  1.0000E-02  1.0000E-02  1.0000E-02  1.0000E-02  1.0000E-02  1.0000E-02  1.0000E-02
       1.0000E-02  1.0000E-02  1.0000E-02  1.0000E-02  1.0000E-02  1.0000E-02  1.0000E-02  1.0000E-02  1.0000E-02  1.0000E-02
       1.0000E-02  1.0000E-02  1.0000E-02  1.0000E-02  1.0000E-02  1.0000E-02  1.0000E-02  1.0000E-02  1.0000E-02  1.0000E-02
       1.0000E-02  1.0000E-02  1.0000E-02  1.0000E-02  1.0000E-02
  60    27.38       30.28       32.99       35.41       37.75       39.97       41.98       43.67       45.09       46.33    
        47.43       48.10       48.49       48.75       48.87       48.84       48.71       48.57       48.39       48.11    
        47.75       47.33       46.73       45.58       43.77       41.62       39.16       36.41       33.27       29.81    
        26.08       22.09       18.04       14.38       11.34       8.352       5.436       3.334       1.564       1.005    
       0.3989      0.1451      1.0000E-02  1.0000E-02  1.0000E-02  1.0000E-02  1.0000E-02  1.0000E-02  1.0000E-02  1.0000E-02
       1.0000E-02  1.0000E-02  1.0000E-02  1.0000E-02  1.0000E-02  1.0000E-02  1.0000E-02  1.0000E-02  1.0000E-02  1.0000E-02
       1.0000E-02  1.0000E-02  1.0000E-02  1.0000E-02  1.0000E-02  1.0000E-02  1.0000E-02  1.0000E-02  1.0000E-02  1.0000E-02
       1.0000E-02  1.0000E-02  1.0000E-02  1.0000E-02  1.0000E-02
  61    27.31       30.47       33.32       35.90       38.32       40.59       42.61       44.35       45.86       47.19    
        48.09       48.50       48.80       48.98       49.04       48.99       48.86       48.67       48.44       48.14    
        47.77       47.35       46.59       45.20       43.41       41.28       38.81       36.07       32.99       29.58    
        26.01       22.43       18.83       15.38       12.27       9.412       6.840       4.644       2.752       1.774    
       0.8959      0.1970      0.1002      4.8797E-02  1.0000E-02  1.0000E-02  1.0000E-02  1.0000E-02  1.0000E-02  1.0000E-02
       1.0000E-02  1.0000E-02  1.0000E-02  1.0000E-02  1.0000E-02  1.0000E-02  1.0000E-02  1.0000E-02  1.0000E-02  1.0000E-02
       1.0000E-02  1.0000E-02  1.0000E-02  1.0000E-02  1.0000E-02  1.0000E-02  1.0000E-02  1.0000E-02  1.0000E-02  1.0000E-02
       1.0000E-02  1.0000E-02  1.0000E-02  1.0000E-02  1.0000E-02
  62    27.20       30.51       33.44       36.13       38.64       40.98       43.03       44.79       46.34       47.63    
        48.40       48.79       49.04       49.16       49.15       49.06       48.90       48.68       48.40       48.07    
        47.67       47.19       46.25       44.68       42.83       40.64       38.14       35.45       32.43       29.05    
        25.57       22.12       18.76       15.50       12.45       9.638       7.156       5.152       3.653       2.630    
        1.850       1.047      0.6653      0.4541      0.2308      8.1402E-02  1.0000E-02  1.0000E-02  1.0000E-02  1.0000E-02
       1.0000E-02  1.0000E-02  1.0000E-02  1.0000E-02  1.0000E-02  1.0000E-02  1.0000E-02  1.0000E-02  1.0000E-02  1.0000E-02
       1.0000E-02  1.0000E-02  1.0000E-02  1.0000E-02  1.0000E-02  1.0000E-02  1.0000E-02  1.0000E-02  1.0000E-02  1.0000E-02
       1.0000E-02  1.0000E-02  1.0000E-02  1.0000E-02  1.0000E-02
  63    27.07       30.44       33.43       36.20       38.78       41.13       43.21       45.01       46.53       47.75    
        48.61       49.04       49.19       49.25       49.20       49.05       48.85       48.59       48.28       47.91    
        47.46       46.90       45.70       43.95       42.01       39.72       37.19       34.42       31.29       27.94    
        24.57       21.23       18.00       14.89       11.91       9.066       6.521       4.778       3.649       2.820    
        2.196       1.689       1.249      0.8386      0.4131      0.1175      1.0000E-02  1.0000E-02  1.0000E-02  1.0000E-02
       1.0000E-02  1.0000E-02  1.0000E-02  1.0000E-02  1.0000E-02  1.0000E-02  1.0000E-02  1.0000E-02  1.0000E-02  1.0000E-02
       1.0000E-02  1.0000E-02  1.0000E-02  1.0000E-02  1.0000E-02  1.0000E-02  1.0000E-02  1.0000E-02  1.0000E-02  1.0000E-02
       1.0000E-02  1.0000E-02  1.0000E-02  1.0000E-02  1.0000E-02
  64    26.90       30.28       33.34       36.16       38.76       41.07       43.12       44.93       46.46       47.68    
        48.53       49.05       49.26       49.26       49.13       48.93       48.68       48.39       48.05       47.66    
        47.16       46.23       44.70       42.93       40.91       38.57       35.93       32.97       29.69       26.29    
        22.89       19.63       16.59       13.65       10.69       7.587       4.546       3.303       2.906       2.435    
        2.063       1.705       1.315      0.8356      0.2786      3.4732E-02  1.0000E-02  1.0000E-02  1.0000E-02  1.0000E-02
       1.0000E-02  1.0000E-02  1.0000E-02  1.0000E-02  1.0000E-02  1.0000E-02  1.0000E-02  1.0000E-02  1.0000E-02  1.0000E-02
       1.0000E-02  1.0000E-02  1.0000E-02  1.0000E-02  1.0000E-02  1.0000E-02  1.0000E-02  1.0000E-02  1.0000E-02  1.0000E-02
       1.0000E-02  1.0000E-02  1.0000E-02  1.0000E-02  1.0000E-02
  65    26.70       30.09       33.17       36.01       38.59       40.77       42.79       44.64       46.10       47.33    
        48.20       48.75       49.03       49.08       48.93       48.67       48.37       48.09       47.71       47.09    
        46.23       44.97       43.43       41.61       39.51       37.10       34.34       31.17       27.67       24.02    
        20.46       17.33       14.54       11.85       8.981       5.485       2.321       1.822       1.709       1.481    
        1.534       1.412       1.164      0.5907      8.9274E-02  3.3903E-02  1.0000E-02  1.0000E-02  1.0000E-02  1.0000E-02
       1.0000E-02  1.0000E-02  1.0000E-02  1.0000E-02  1.0000E-02  1.0000E-02  1.0000E-02  1.0000E-02  1.0000E-02  1.0000E-02
       1.0000E-02  1.0000E-02  1.0000E-02  1.0000E-02  1.0000E-02  1.0000E-02  1.0000E-02  1.0000E-02  1.0000E-02  1.0000E-02
       1.0000E-02  1.0000E-02  1.0000E-02  1.0000E-02  1.0000E-02
  66    26.48       29.87       32.90       35.66       38.11       40.25       42.19       43.94       45.43       46.70    
        47.52       48.10       48.40       48.48       48.39       48.15       47.86       47.38       46.71       45.78    
        44.73       43.42       41.83       39.95       37.77       35.26       32.33       28.91       25.05       20.92    
        16.97       14.04       11.85       9.687       7.452       5.026       2.474       1.184      0.7946      0.5810    
       0.7209      0.9205      0.8899      0.5130      0.1224      1.0000E-02  1.0000E-02  1.0000E-02  1.0000E-02  1.0000E-02
       1.0000E-02  1.0000E-02  1.0000E-02  1.0000E-02  1.0000E-02  1.0000E-02  1.0000E-02  1.0000E-02  1.0000E-02  1.0000E-02
       1.0000E-02  1.0000E-02  1.0000E-02  1.0000E-02  1.0000E-02  1.0000E-02  1.0000E-02  1.0000E-02  1.0000E-02  1.0000E-02
       1.0000E-02  1.0000E-02  1.0000E-02  1.0000E-02  1.0000E-02
  67    26.23       29.57       32.53       35.18       37.51       39.54       41.37       43.00       44.43       45.62    
        46.40       47.00       47.29       47.33       47.26       47.16       46.60       45.85       45.04       44.09    
        42.96       41.62       40.02       38.05       35.80       33.24       30.16       26.36       22.09       16.91    
        11.42       9.101       8.404       7.086       5.679       4.010       2.032      0.8005      0.5323      0.2630    
       1.0000E-02  0.3087      0.4329      0.1857      1.0000E-02  1.0000E-02  1.0000E-02  1.0000E-02  1.0000E-02  1.0000E-02
       1.0000E-02  1.0000E-02  1.0000E-02  1.0000E-02  1.0000E-02  1.0000E-02  1.0000E-02  1.0000E-02  1.0000E-02  1.0000E-02
       1.0000E-02  1.0000E-02  1.0000E-02  1.0000E-02  1.0000E-02  1.0000E-02  1.0000E-02  1.0000E-02  1.0000E-02  1.0000E-02
       1.0000E-02  1.0000E-02  1.0000E-02  1.0000E-02  1.0000E-02
  68    25.96       29.19       32.09       34.62       36.79       38.66       40.32       41.80       43.11       44.09    
        44.86       45.41       45.68       45.65       45.49       45.18       44.54       43.83       43.00       42.04    
        40.91       39.55       37.90       35.95       33.67       30.99       27.74       23.88       19.11       12.36    
        6.281       5.281       4.769       3.937       3.617       2.705       1.437      0.5613      0.2608      1.0000E-02
       1.0000E-02  1.0000E-02  1.0000E-02  1.0000E-02  1.0000E-02  1.0000E-02  1.0000E-02  1.0000E-02  1.0000E-02  1.0000E-02
       1.0000E-02  1.0000E-02  1.0000E-02  1.0000E-02  1.0000E-02  1.0000E-02  1.0000E-02  1.0000E-02  1.0000E-02  1.0000E-02
       1.0000E-02  1.0000E-02  1.0000E-02  1.0000E-02  1.0000E-02  1.0000E-02  1.0000E-02  1.0000E-02  1.0000E-02  1.0000E-02
       1.0000E-02  1.0000E-02  1.0000E-02  1.0000E-02  1.0000E-02
  69    25.65       28.70       31.49       33.90       35.90       37.59       39.05       40.29       41.32       42.14    
        42.83       43.37       43.59       43.47       43.12       42.67       42.11       41.41       40.57       39.59    
        38.48       37.14       35.49       33.58       31.35       28.69       25.46       21.70       17.33       12.19    
        6.818       3.995       2.453       1.699       1.496       1.046      0.6430      0.3182      1.0000E-02  1.0000E-02
       1.0000E-02  1.0000E-02  1.0000E-02  1.0000E-02  1.0000E-02  1.0000E-02  1.0000E-02  1.0000E-02  1.0000E-02  1.0000E-02
       1.0000E-02  1.0000E-02  1.0000E-02  1.0000E-02  1.0000E-02  1.0000E-02  1.0000E-02  1.0000E-02  1.0000E-02  1.0000E-02
       1.0000E-02  1.0000E-02  1.0000E-02  1.0000E-02  1.0000E-02  1.0000E-02  1.0000E-02  1.0000E-02  1.0000E-02  1.0000E-02
       1.0000E-02  1.0000E-02  1.0000E-02  1.0000E-02  1.0000E-02
  70    25.31       28.14       30.70       32.94       34.74       36.24       37.50       38.53       39.29       39.89    
        40.36       40.83       41.03       40.76       40.38       39.83       39.29       38.61       37.76       36.77    
        35.68       34.38       32.80       30.95       28.80       26.23       23.17       19.66       15.69       11.36    
        7.132       3.593       1.379      0.7479      1.0000E-02  1.0000E-02  1.0000E-02  1.0000E-02  1.0000E-02  1.0000E-02
       1.0000E-02  1.0000E-02  1.0000E-02  1.0000E-02  1.0000E-02  1.0000E-02  1.0000E-02  1.0000E-02  1.0000E-02  1.0000E-02
       1.0000E-02  1.0000E-02  1.0000E-02  1.0000E-02  1.0000E-02  1.0000E-02  1.0000E-02  1.0000E-02  1.0000E-02  1.0000E-02
       1.0000E-02  1.0000E-02  1.0000E-02  1.0000E-02  1.0000E-02  1.0000E-02  1.0000E-02  1.0000E-02  1.0000E-02  1.0000E-02
       1.0000E-02  1.0000E-02  1.0000E-02  1.0000E-02  1.0000E-02
  71    24.93       27.45       29.72       31.71       33.29       34.54       35.57       36.35       36.85       37.18    
        37.36       37.69       37.88       37.62       37.22       36.63       36.04       35.37       34.54       33.60    
        32.55       31.30       29.86       28.11       26.01       23.62       20.76       17.46       13.78       9.851    
        6.033       2.789      0.7300      1.0000E-02  1.0000E-02  1.0000E-02  1.0000E-02  1.0000E-02  1.0000E-02  1.0000E-02
       1.0000E-02  1.0000E-02  1.0000E-02  1.0000E-02  1.0000E-02  1.0000E-02  1.0000E-02  1.0000E-02  1.0000E-02  1.0000E-02
       1.0000E-02  1.0000E-02  1.0000E-02  1.0000E-02  1.0000E-02  1.0000E-02  1.0000E-02  1.0000E-02  1.0000E-02  1.0000E-02
       1.0000E-02  1.0000E-02  1.0000E-02  1.0000E-02  1.0000E-02  1.0000E-02  1.0000E-02  1.0000E-02  1.0000E-02  1.0000E-02
       1.0000E-02  1.0000E-02  1.0000E-02  1.0000E-02  1.0000E-02
  72    24.52       26.71       28.56       30.19       31.51       32.46       33.17       33.65       33.82       33.71    
        33.37       33.74       34.10       33.93       33.55       33.00       32.38       31.72       30.97       30.08    
        29.08       27.92       26.56       24.94       23.00       20.78       18.15       15.06       11.45       7.530    
        3.678       2.096      0.5900      1.0000E-02  1.0000E-02  1.0000E-02  1.0000E-02  1.0000E-02  1.0000E-02  1.0000E-02
       1.0000E-02  1.0000E-02  1.0000E-02  1.0000E-02  1.0000E-02  1.0000E-02  1.0000E-02  1.0000E-02  1.0000E-02  1.0000E-02
       1.0000E-02  1.0000E-02  1.0000E-02  1.0000E-02  1.0000E-02  1.0000E-02  1.0000E-02  1.0000E-02  1.0000E-02  1.0000E-02
       1.0000E-02  1.0000E-02  1.0000E-02  1.0000E-02  1.0000E-02  1.0000E-02  1.0000E-02  1.0000E-02  1.0000E-02  1.0000E-02
       1.0000E-02  1.0000E-02  1.0000E-02  1.0000E-02  1.0000E-02
  73    24.08       25.86       27.18       28.31       29.26       29.92       30.29       30.40       30.20       29.32    
        27.52       28.88       29.53       29.60       29.31       28.88       28.34       27.71       27.02       26.18    
        25.24       24.13       22.86       21.40       19.68       17.67       15.36       12.51       8.878       4.393    
       0.8466      0.6113      1.0000E-02  1.0000E-02  1.0000E-02  1.0000E-02  1.0000E-02  1.0000E-02  1.0000E-02  1.0000E-02
       1.0000E-02  1.0000E-02  1.0000E-02  1.0000E-02  1.0000E-02  1.0000E-02  1.0000E-02  1.0000E-02  1.0000E-02  1.0000E-02
       1.0000E-02  1.0000E-02  1.0000E-02  1.0000E-02  1.0000E-02  1.0000E-02  1.0000E-02  1.0000E-02  1.0000E-02  1.0000E-02
       1.0000E-02  1.0000E-02  1.0000E-02  1.0000E-02  1.0000E-02  1.0000E-02  1.0000E-02  1.0000E-02  1.0000E-02  1.0000E-02
       1.0000E-02  1.0000E-02  1.0000E-02  1.0000E-02  1.0000E-02
  74    23.92       24.94       25.59       26.10       26.52       26.83       26.87       26.66       26.18       24.61    
        22.28       24.07       24.93       24.92       24.62       24.29       23.82       23.20       22.52       21.74    
        20.88       19.85       18.73       17.44       15.95       14.32       12.49       9.938       7.605       3.022    
       0.3361      1.0000E-02  1.0000E-02  1.0000E-02  1.0000E-02  1.0000E-02  1.0000E-02  1.0000E-02  1.0000E-02  1.0000E-02
       1.0000E-02  1.0000E-02  1.0000E-02  1.0000E-02  1.0000E-02  1.0000E-02  1.0000E-02  1.0000E-02  1.0000E-02  1.0000E-02
       1.0000E-02  1.0000E-02  1.0000E-02  1.0000E-02  1.0000E-02  1.0000E-02  1.0000E-02  1.0000E-02  1.0000E-02  1.0000E-02
       1.0000E-02  1.0000E-02  1.0000E-02  1.0000E-02  1.0000E-02  1.0000E-02  1.0000E-02  1.0000E-02  1.0000E-02  1.0000E-02
       1.0000E-02  1.0000E-02  1.0000E-02  1.0000E-02  1.0000E-02
  75    23.92       23.78       23.62       23.45       23.25       23.03       22.77       22.48       22.17       21.84    
        21.50       21.12       20.71       20.26       19.76       19.22       18.67       18.07       17.41       16.70    
        15.90       15.01       14.06       13.01       11.78       10.60       9.583       8.617       7.643      1.0000E-02
       1.0000E-02  1.0000E-02  1.0000E-02  1.0000E-02  1.0000E-02  1.0000E-02  1.0000E-02  1.0000E-02  1.0000E-02  1.0000E-02
       1.0000E-02  1.0000E-02  1.0000E-02  1.0000E-02  1.0000E-02  1.0000E-02  1.0000E-02  1.0000E-02  1.0000E-02  1.0000E-02
       1.0000E-02  1.0000E-02  1.0000E-02  1.0000E-02  1.0000E-02  1.0000E-02  1.0000E-02  1.0000E-02  1.0000E-02  1.0000E-02
       1.0000E-02  1.0000E-02  1.0000E-02  1.0000E-02  1.0000E-02  1.0000E-02  1.0000E-02  1.0000E-02  1.0000E-02  1.0000E-02
       1.0000E-02  1.0000E-02  1.0000E-02  1.0000E-02  1.0000E-02

 HEAD WILL BE SAVED ON UNIT   51 AT END OF TIME STEP    1, STRESS PERIOD    1
1
  VOLUMETRIC BUDGET FOR ENTIRE MODEL AT END OF TIME STEP    1, STRESS PERIOD   1
  ------------------------------------------------------------------------------

     CUMULATIVE VOLUMES      L**3       RATES FOR THIS TIME STEP      L**3/T
     ------------------                 ------------------------

           IN:                                      IN:
           ---                                      ---
             STORAGE =           0.0000               STORAGE =           0.0000
       CONSTANT HEAD =   143604096.0000         CONSTANT HEAD =       39343.5898
            RECHARGE =   759784832.0000              RECHARGE =      208160.2344

            TOTAL IN =   903388928.0000              TOTAL IN =      247503.8281

          OUT:                                     OUT:
          ----                                     ----
             STORAGE =           0.0000               STORAGE =           0.0000
       CONSTANT HEAD =   903389056.0000         CONSTANT HEAD =      247503.8438
            RECHARGE =           0.0000              RECHARGE =           0.0000

           TOTAL OUT =   903389056.0000             TOTAL OUT =      247503.8438

            IN - OUT =        -128.0000              IN - OUT =      -1.5625E-02

 PERCENT DISCREPANCY =          -0.00     PERCENT DISCREPANCY =          -0.00






         TIME SUMMARY AT END OF TIME STEP    1 IN STRESS PERIOD    1
                    SECONDS     MINUTES      HOURS       DAYS        YEARS
                    -----------------------------------------------------------
   TIME STEP LENGTH 3.15360E+08 5.25600E+06  87600.      3650.0      9.9932    
 STRESS PERIOD TIME 3.15360E+08 5.25600E+06  87600.      3650.0      9.9932    
         TOTAL TIME 3.15360E+08 5.25600E+06  87600.      3650.0      9.9932    
1

 HEAD AND DRAWDOWN OBSERVATIONS
 OBSERVATION       OBSERVED           SIMULATED
   NAME              VALUE              VALUE             DIFFERENCE
 --------------------------------------------------------------------
 Obs_0           62.500000000        25.477848053        37.022151947    
 Obs_1           15.800000191        24.927730560       -9.1277303696    
 Obs_2           1.2000000477        12.239455223       -11.039455414    
 Obs_3           7.3000001907        12.926357269       -5.6263570786    
 Obs_4           7.3000001907        15.885945320       -8.5859451294    
 Obs_5           10.500000000        17.590938568       -7.0909385681    
 Obs_6           9.4499998093        17.273735046       -7.8237352371    
 Obs_7           14.550000191        18.844083786       -4.2940835953    
 Obs_8           20.299999237        20.179035187       0.12096405029    
 Obs_9           1.2000000477        7.0238065720       -5.8238067627    
 Obs_10          3.0000000000        7.2538628578       -4.2538628578    
 Obs_11          6.6500000954        8.9897480011       -2.3397479057    
 Obs_12          2.7000000477        9.5892286301       -6.8892288208    
 Obs_13          6.0999999046        1.9792736769        4.1207261086    
 Obs_14         0.10000000149       0.20980893075      -0.10980892926    
 Obs_15          8.1000003815        5.6946640015        2.4053363800    
 Obs_16          8.1999998093        6.1586637497        2.0413360596    
 Obs_17          5.5999999046        3.9409511089        1.6590487957    
 Obs_18          5.5000000000        3.6377453804        1.8622546196    
 Obs_19          4.9000000954        4.6472353935       0.25276470184    
 Obs_20          6.0000000000        6.8889546394      -0.88895463943    
 Obs_21          7.3000001907        9.5056753159       -2.2056751251    

 HEAD/DRAWDOWN SUM OF SQUARED DIFFERENCE:    1.95498E+03

 Run end date and time (yyyy/mm/dd hh:mm:ss): 2021/06/15 13:19:14
 Elapsed run time:  0.063 Seconds

