                                  MODFLOW-2005     
      U.S. GEOLOGICAL SURVEY MODULAR FINITE-DIFFERENCE GROUND-WATER FLOW MODEL
                            VERSION 1.12.00 2/3/2017

 LIST FILE: model_pago_OPT.list
                         UNIT    2

 OPENING model_pago_OPT.dis
 FILE TYPE:DIS   UNIT   11   STATUS:OLD    
 FORMAT:FORMATTED              ACCESS:SEQUENTIAL          

 OPENING model_pago_OPT.bas
 FILE TYPE:BAS6   UNIT   13   STATUS:OLD    
 FORMAT:FORMATTED              ACCESS:SEQUENTIAL          

 OPENING model_pago_OPT.lpf
 FILE TYPE:LPF   UNIT   15   STATUS:OLD    
 FORMAT:FORMATTED              ACCESS:SEQUENTIAL          

 OPENING model_pago_OPT.rch
 FILE TYPE:RCH   UNIT   19   STATUS:OLD    
 FORMAT:FORMATTED              ACCESS:SEQUENTIAL          

 OPENING model_pago_OPT.oc
 FILE TYPE:OC   UNIT   14   STATUS:OLD    
 FORMAT:FORMATTED              ACCESS:SEQUENTIAL          

 OPENING model_pago_OPT.pcg
 FILE TYPE:PCG   UNIT   27   STATUS:OLD    
 FORMAT:FORMATTED              ACCESS:SEQUENTIAL          

 OPENING model_pago_OPT.hob
 FILE TYPE:HOB   UNIT   39   STATUS:OLD    
 FORMAT:FORMATTED              ACCESS:SEQUENTIAL          

 OPENING model_pago_OPT.hds
 FILE TYPE:DATA(BINARY)   UNIT   51   STATUS:REPLACE
 FORMAT:BINARY                 ACCESS:SEQUENTIAL          

 OPENING model_pago_OPT.hob.out
 FILE TYPE:DATA   UNIT    7   STATUS:UNKNOWN
 FORMAT:FORMATTED              ACCESS:SEQUENTIAL          

 BAS -- BASIC PACKAGE, VERSION 7, 5/2/2005 INPUT READ FROM UNIT   13
 
 MODFLOW was compiled using mixed precision
 Precision of REAL variables:           6
 Precision of DOUBLE PRECISION variables:          15

 DISCRETIZATION INPUT DATA READ FROM UNIT   11
 # DIS package for  MODFLOW-2005, generated by Flopy.
    1 LAYERS        75 ROWS        75 COLUMNS
    1 STRESS PERIOD(S) IN SIMULATION
 MODEL TIME UNIT IS DAYS
 MODEL LENGTH UNIT IS METERS
  Confining bed flag for each layer:
   0

                     DELR =   100.000    

                     DELC =   100.000    



           TOP ELEVATION OF LAYER 1
 READING ON UNIT   11 WITH FORMAT: (75E15.6)           

   MODEL LAYER BOTTOM EL. =  -500.000     FOR LAYER   1


 STRESS PERIOD     LENGTH       TIME STEPS     MULTIPLIER FOR DELT    SS FLAG
 ----------------------------------------------------------------------------
        1         3650.000          1                    1.000         SS

 STEADY-STATE SIMULATION



 
 # BAS6 package for  MODFLOW-2005, generated by Flopy.                           
 THE FREE FORMAT OPTION HAS BEEN SELECTED



                     BOUNDARY ARRAY FOR LAYER   1
 READING ON UNIT   13 WITH FORMAT: (75I10)             

 AQUIFER HEAD WILL BE SET TO  -999.99     AT ALL NO-FLOW NODES (IBOUND=0).



                       INITIAL HEAD FOR LAYER   1
 READING ON UNIT   13 WITH FORMAT: (75E15.6)           
 # OC package for  MODFLOW-2005, generated by Flopy.

 OUTPUT CONTROL IS SPECIFIED ONLY AT TIME STEPS FOR WHICH OUTPUT IS DESIRED
 COMPACT CELL-BY-CELL BUDGET FILES WILL BE WRITTEN
 AUXILIARY DATA WILL BE SAVED IN CELL-BY-CELL BUDGET FILES
 HEAD PRINT FORMAT CODE IS   0    DRAWDOWN PRINT FORMAT CODE IS   0
 HEADS WILL BE SAVED ON UNIT   51    DRAWDOWNS WILL BE SAVED ON UNIT    0

 LPF -- LAYER-PROPERTY FLOW PACKAGE, VERSION 7, 5/2/2005
         INPUT READ FROM UNIT   15
 # LPF package for  MODFLOW-2005, generated by Flopy.
 HEAD AT CELLS THAT CONVERT TO DRY= -1.00000E+30
 No named parameters

   LAYER FLAGS:
 LAYER       LAYTYP        LAYAVG         CHANI        LAYVKA        LAYWET
 ---------------------------------------------------------------------------
    1             0             0     1.000E+00             0             0

   INTERPRETATION OF LAYER FLAGS:
                        INTERBLOCK     HORIZONTAL    DATA IN
         LAYER TYPE   TRANSMISSIVITY   ANISOTROPY   ARRAY VKA   WETTABILITY
 LAYER      (LAYTYP)      (LAYAVG)       (CHANI)      (LAYVKA)      (LAYWET)
 ---------------------------------------------------------------------------
    1      CONFINED      HARMONIC     1.000E+00    VERTICAL K  NON-WETTABLE

 WETTING CAPABILITY IS NOT ACTIVE IN ANY LAYER



              HYD. COND. ALONG ROWS FOR LAYER   1
 READING ON UNIT   15 WITH FORMAT: (75E15.6)           

      VERTICAL HYD. COND. =   10.0000     FOR LAYER   1

 RCH -- RECHARGE PACKAGE, VERSION 7, 5/2/2005 INPUT READ FROM UNIT   19
 # RCH package for  MODFLOW-2005, generated by Flopy.
 No named parameters
 OPTION 3 -- RECHARGE TO HIGHEST ACTIVE NODE IN EACH VERTICAL COLUMN


     0 Recharge parameters

 PCG -- CONJUGATE-GRADIENT SOLUTION PACKAGE, VERSION 7, 5/2/2005
 # PCG package for  MODFLOW-2005, generated by Flopy.
 MAXIMUM OF    100 CALLS OF SOLUTION ROUTINE
 MAXIMUM OF     50 INTERNAL ITERATIONS PER CALL TO SOLUTION ROUTINE
 MATRIX PRECONDITIONING TYPE :    1



                                    SOLUTION BY THE CONJUGATE-GRADIENT METHOD
                                   -------------------------------------------
                    MAXIMUM NUMBER OF CALLS TO PCG ROUTINE =      100
                        MAXIMUM ITERATIONS PER CALL TO PCG =       50
                               MATRIX PRECONDITIONING TYPE =        1
        RELAXATION FACTOR (ONLY USED WITH PRECOND. TYPE 1) =    0.10000E+01
 PARAMETER OF POLYNOMIAL PRECOND. = 2 (2) OR IS CALCULATED :        0
                         HEAD CHANGE CRITERION FOR CLOSURE =    0.10000E-05
                     RESIDUAL CHANGE CRITERION FOR CLOSURE =    0.30000E-02
            PCG HEAD AND RESIDUAL CHANGE PRINTOUT INTERVAL =      999
     PRINTING FROM SOLVER IS LIMITED(1) OR SUPPRESSED (>1) =        3
                            STEADY-STATE DAMPING PARAMETER =    0.10000E+01
                               TRANSIENT DAMPING PARAMETER =    0.10000E+01

 OBS2BAS7 -- HEAD OBSERVATIONS, VERSION 2.0, 2/28/2006
 INPUT READ FROM UNIT  39
 # HOB package for  MODFLOW-2005, generated by Flopy.

 NUMBER OF HEADS....................................:   22
   NUMBER OF MULTILAYER HEADS.......................:    0
   MAXIMUM NUMBER OF LAYERS FOR MULTILAYER HEADS....:    0
 HEAD OBSERVATIONS WILL BE SAVED ON UNIT............:    7
 SIMULATED EQUIVALENT HEAD AT DRY CELLS WILL BE:   -999.000    

 OBSERVED HEAD DATA -- TIME OFFSETS ARE MULTIPLIED BY:   1.0000    

                    REFER.
       OBSERVATION  STRESS    TIME
  OBS#    NAME      PERIOD   OFFSET    OBSERVATION
     1 Obs_0            1    0.000       62.50    
 Observation within a steady-state time step has been moved to the end of the time step.
     2 Obs_1            1    0.000       15.80    
 Observation within a steady-state time step has been moved to the end of the time step.
     3 Obs_2            1    0.000       1.200    
 Observation within a steady-state time step has been moved to the end of the time step.
     4 Obs_3            1    0.000       7.300    
 Observation within a steady-state time step has been moved to the end of the time step.
     5 Obs_4            1    0.000       7.300    
 Observation within a steady-state time step has been moved to the end of the time step.
     6 Obs_5            1    0.000       10.50    
 Observation within a steady-state time step has been moved to the end of the time step.
     7 Obs_6            1    0.000       9.450    
 Observation within a steady-state time step has been moved to the end of the time step.
     8 Obs_7            1    0.000       14.55    
 Observation within a steady-state time step has been moved to the end of the time step.
     9 Obs_8            1    0.000       20.30    
 Observation within a steady-state time step has been moved to the end of the time step.
    10 Obs_9            1    0.000       1.200    
 Observation within a steady-state time step has been moved to the end of the time step.
    11 Obs_10           1    0.000       3.000    
 Observation within a steady-state time step has been moved to the end of the time step.
    12 Obs_11           1    0.000       6.650    
 Observation within a steady-state time step has been moved to the end of the time step.
    13 Obs_12           1    0.000       2.700    
 Observation within a steady-state time step has been moved to the end of the time step.
    14 Obs_13           1    0.000       6.100    
 Observation within a steady-state time step has been moved to the end of the time step.
    15 Obs_14           1    0.000      0.1000    
 Observation within a steady-state time step has been moved to the end of the time step.
    16 Obs_15           1    0.000       8.100    
 Observation within a steady-state time step has been moved to the end of the time step.
    17 Obs_16           1    0.000       8.200    
 Observation within a steady-state time step has been moved to the end of the time step.
    18 Obs_17           1    0.000       5.600    
 Observation within a steady-state time step has been moved to the end of the time step.
    19 Obs_18           1    0.000       5.500    
 Observation within a steady-state time step has been moved to the end of the time step.
    20 Obs_19           1    0.000       4.900    
 Observation within a steady-state time step has been moved to the end of the time step.
    21 Obs_20           1    0.000       6.000    
 Observation within a steady-state time step has been moved to the end of the time step.
    22 Obs_21           1    0.000       7.300    
 Observation within a steady-state time step has been moved to the end of the time step.

                                                     HEAD CHANGE
                                                      REFERENCE
        OBSERVATION                   ROW     COL    OBSERVATION
  OBS#     NAME       LAY  ROW  COL  OFFSET  OFFSET   (IF > 0)
     1  Obs_0           1   50   11   0.000   0.000        0
     2  Obs_1           1   74   13   0.000   0.000        0
     3  Obs_2           1   39   15   0.000   0.000        0
     4  Obs_3           1   40   16   0.000   0.000        0
     5  Obs_4           1   42   16   0.000   0.000        0
     6  Obs_5           1   43   16   0.000   0.000        0
     7  Obs_6           1   43   17   0.000   0.000        0
     8  Obs_7           1   44   17   0.000   0.000        0
     9  Obs_8           1   45   17   0.000   0.000        0
    10  Obs_9           1   35   18   0.000   0.000        0
    11  Obs_10          1   39   20   0.000   0.000        0
    12  Obs_11          1   47   30   0.000   0.000        0
    13  Obs_12          1   59   35   0.000   0.000        0
    14  Obs_13          1   58   39   0.000   0.000        0
    15  Obs_14          1   47   41   0.000   0.000        0
    16  Obs_15          1   19   56   0.000   0.000        0
    17  Obs_16          1   19   57   0.000   0.000        0
    18  Obs_17          1   35   64   0.000   0.000        0
    19  Obs_18          1   36   64   0.000   0.000        0
    20  Obs_19          1   34   65   0.000   0.000        0
    21  Obs_20          1   51   74   0.000   0.000        0
    22  Obs_21          1   50   75   0.000   0.000        0
1
                            STRESS PERIOD NO.    1, LENGTH =   3650.000    
                            -----------------------------------------------

                              NUMBER OF TIME STEPS =     1

                               MULTIPLIER FOR DELT =     1.000

                            INITIAL TIME STEP SIZE =   3650.000    



                           RECHARGE
 READING ON UNIT   19 WITH FORMAT: (75E15.6)           
 
 SOLVING FOR HEAD 

 OUTPUT CONTROL FOR STRESS PERIOD    1   TIME STEP    1
    PRINT HEAD FOR ALL LAYERS
    PRINT BUDGET
    SAVE HEAD FOR ALL LAYERS
    SAVE BUDGET
1
              HEAD IN LAYER   1 AT END OF TIME STEP   1 IN STRESS PERIOD    1
  ---------------------------------------------------------------------------

            1           2           3           4           5           6           7           8           9          10
           11          12          13          14          15          16          17          18          19          20
           21          22          23          24          25          26          27          28          29          30
           31          32          33          34          35          36          37          38          39          40
           41          42          43          44          45          46          47          48          49          50
           51          52          53          54          55          56          57          58          59          60
           61          62          63          64          65          66          67          68          69          70
           71          72          73          74          75
 ........................................................................................................................
   1   1.0000E-02  1.0000E-02  1.0000E-02  1.0000E-02  1.0000E-02  1.0000E-02  1.0000E-02  1.0000E-02  1.0000E-02  1.0000E-02
       1.0000E-02  1.0000E-02  1.0000E-02  1.0000E-02  1.0000E-02  1.0000E-02  1.0000E-02  1.0000E-02  1.0000E-02  1.0000E-02
       1.0000E-02  1.0000E-02  1.0000E-02  1.0000E-02  1.0000E-02  1.0000E-02  1.0000E-02  1.0000E-02  1.0000E-02  1.0000E-02
       1.0000E-02  1.0000E-02  1.0000E-02  1.0000E-02  1.0000E-02  1.0000E-02  1.0000E-02  1.0000E-02  1.0000E-02  1.0000E-02
       1.0000E-02  1.0000E-02  1.0000E-02  1.0000E-02  1.0000E-02  1.0000E-02  1.0000E-02  1.0000E-02  1.0000E-02  1.0000E-02
       1.0000E-02  1.0000E-02   1.186      1.0000E-02  1.0000E-02  1.0000E-02  1.0000E-02  1.0000E-02  1.0000E-02  1.0000E-02
       1.0000E-02  1.0000E-02  1.0000E-02  1.0000E-02  1.0000E-02  1.0000E-02  1.0000E-02  1.0000E-02  1.0000E-02  1.0000E-02
       1.0000E-02  1.0000E-02  1.0000E-02  1.0000E-02  1.0000E-02
   2   1.0000E-02  1.0000E-02  1.0000E-02  1.0000E-02  1.0000E-02  1.0000E-02  1.0000E-02  1.0000E-02  1.0000E-02  1.0000E-02
       1.0000E-02  1.0000E-02  1.0000E-02  1.0000E-02  1.0000E-02  1.0000E-02  1.0000E-02  1.0000E-02  1.0000E-02  1.0000E-02
       1.0000E-02  1.0000E-02  1.0000E-02  1.0000E-02  1.0000E-02  1.0000E-02  1.0000E-02  1.0000E-02  1.0000E-02  1.0000E-02
       1.0000E-02  1.0000E-02  1.0000E-02  1.0000E-02  1.0000E-02  1.0000E-02  1.0000E-02  1.0000E-02  1.0000E-02  1.0000E-02
       1.0000E-02  1.0000E-02  1.0000E-02  1.0000E-02  1.0000E-02  1.0000E-02  1.0000E-02  1.0000E-02  1.0000E-02  1.0000E-02
       0.1153      0.1845      0.3232      1.0000E-02  1.0000E-02  1.0000E-02  1.0000E-02  1.0000E-02  1.0000E-02  1.0000E-02
       1.0000E-02  1.0000E-02  1.0000E-02  1.0000E-02  1.0000E-02  1.0000E-02  1.0000E-02  1.0000E-02  1.0000E-02  1.0000E-02
       1.0000E-02  1.0000E-02  1.0000E-02  1.0000E-02  1.0000E-02
   3   1.0000E-02  1.0000E-02  1.0000E-02  1.0000E-02  1.0000E-02  1.0000E-02  1.0000E-02  1.0000E-02  1.0000E-02  1.0000E-02
       1.0000E-02  1.0000E-02  1.0000E-02  1.0000E-02  1.0000E-02  1.0000E-02  1.0000E-02  1.0000E-02  1.0000E-02  1.0000E-02
       1.0000E-02  1.0000E-02  1.0000E-02  1.0000E-02  1.0000E-02  1.0000E-02  1.0000E-02  1.0000E-02  1.0000E-02  1.0000E-02
       1.0000E-02  1.0000E-02  1.0000E-02  1.0000E-02  1.0000E-02  1.0000E-02  1.0000E-02  1.0000E-02  1.0000E-02  1.0000E-02
       1.0000E-02  1.0000E-02  1.0000E-02  1.0000E-02  1.0000E-02  1.0000E-02  1.0000E-02  1.0000E-02  1.0000E-02  0.1639    
       0.2778      0.2226      0.1436      1.0000E-02  1.0000E-02  1.0000E-02  1.0000E-02  1.0000E-02  1.0000E-02  1.0000E-02
       1.0000E-02  1.0000E-02  1.0000E-02  1.0000E-02  1.0000E-02  1.0000E-02  1.0000E-02  1.0000E-02  1.0000E-02  1.0000E-02
       1.0000E-02  1.0000E-02  1.0000E-02  1.0000E-02  1.0000E-02
   4   1.0000E-02  1.0000E-02  1.0000E-02  1.0000E-02  1.0000E-02  1.0000E-02  1.0000E-02  1.0000E-02  1.0000E-02  1.0000E-02
       1.0000E-02  1.0000E-02  1.0000E-02  1.0000E-02  1.0000E-02  1.0000E-02  1.0000E-02  1.0000E-02  1.0000E-02  1.0000E-02
       1.0000E-02  1.0000E-02  1.0000E-02  1.0000E-02  1.0000E-02  1.0000E-02  1.0000E-02  1.0000E-02  1.0000E-02  1.0000E-02
       1.0000E-02  1.0000E-02  1.0000E-02  1.0000E-02  1.0000E-02  1.0000E-02  1.0000E-02  1.0000E-02  1.0000E-02  1.0000E-02
       1.0000E-02  1.0000E-02  1.0000E-02  1.0000E-02  1.0000E-02  1.0000E-02  1.0000E-02  1.0000E-02  0.2518      0.3855    
       0.3828      0.2281      7.4947E-02  1.0000E-02  1.0000E-02  1.0000E-02  1.0000E-02  1.0000E-02  1.0000E-02  1.0000E-02
       1.0000E-02  1.0000E-02  1.0000E-02  1.0000E-02  1.0000E-02  1.0000E-02  1.0000E-02  1.0000E-02  1.0000E-02  1.0000E-02
       1.0000E-02  1.0000E-02  1.0000E-02  1.0000E-02  1.0000E-02
   5   1.0000E-02  1.0000E-02  1.0000E-02  1.0000E-02  1.0000E-02  1.0000E-02  1.0000E-02  1.0000E-02  1.0000E-02  1.0000E-02
       1.0000E-02  1.0000E-02  1.0000E-02  1.0000E-02  1.0000E-02  1.0000E-02  1.0000E-02  1.0000E-02  1.0000E-02  1.0000E-02
       1.0000E-02  1.0000E-02  1.0000E-02  1.0000E-02  1.0000E-02  1.0000E-02  1.0000E-02  1.0000E-02  1.0000E-02  1.0000E-02
       1.0000E-02  1.0000E-02  1.0000E-02  1.0000E-02  1.0000E-02  1.0000E-02  1.0000E-02  1.0000E-02  1.0000E-02  1.0000E-02
       1.0000E-02  1.0000E-02  1.0000E-02  1.0000E-02  1.0000E-02  1.0000E-02  0.2466      0.4477      0.5468      0.5323    
       0.4193      0.1710      1.0000E-02  1.0000E-02  1.0000E-02  1.0000E-02  1.0000E-02  1.0000E-02  1.0000E-02  1.0000E-02
       1.0000E-02  1.0000E-02  1.0000E-02  1.0000E-02  1.0000E-02  1.0000E-02  1.0000E-02  1.0000E-02  1.0000E-02  1.0000E-02
       1.0000E-02  1.0000E-02  1.0000E-02  1.0000E-02  1.0000E-02
   6   1.0000E-02  1.0000E-02  1.0000E-02  1.0000E-02  1.0000E-02  1.0000E-02  1.0000E-02  1.0000E-02  1.0000E-02  1.0000E-02
       1.0000E-02  1.0000E-02  1.0000E-02  1.0000E-02  1.0000E-02  1.0000E-02  1.0000E-02  1.0000E-02  1.0000E-02  1.0000E-02
       1.0000E-02  1.0000E-02  1.0000E-02  1.0000E-02  1.0000E-02  1.0000E-02  1.0000E-02  1.0000E-02  1.0000E-02  1.0000E-02
       1.0000E-02  1.0000E-02  1.0000E-02  1.0000E-02  1.0000E-02  1.0000E-02  1.0000E-02  1.0000E-02  1.0000E-02  1.0000E-02
       1.0000E-02  1.0000E-02  1.0000E-02  1.0000E-02  1.0000E-02  1.0000E-02  0.5833      0.7357      0.7174      0.5919    
       0.3430      0.1033      1.0000E-02  1.0000E-02  1.0000E-02  1.0000E-02  1.0000E-02  1.0000E-02  1.0000E-02  1.0000E-02
       1.0000E-02  1.0000E-02  1.0000E-02  1.0000E-02  1.0000E-02  1.0000E-02  1.0000E-02  1.0000E-02  1.0000E-02  1.0000E-02
       1.0000E-02  1.0000E-02  1.0000E-02  1.0000E-02  1.0000E-02
   7   1.0000E-02  1.0000E-02  1.0000E-02  1.0000E-02  1.0000E-02  1.0000E-02  1.0000E-02  1.0000E-02  1.0000E-02  1.0000E-02
       1.0000E-02  1.0000E-02  1.0000E-02  1.0000E-02  1.0000E-02  1.0000E-02  1.0000E-02  1.0000E-02  1.0000E-02  1.0000E-02
       1.0000E-02  1.0000E-02  1.0000E-02  1.0000E-02  1.0000E-02  1.0000E-02  1.0000E-02  1.0000E-02  1.0000E-02  1.0000E-02
       1.0000E-02  1.0000E-02  1.0000E-02  1.0000E-02  1.0000E-02  1.0000E-02  1.0000E-02  1.0000E-02  1.0000E-02  1.0000E-02
       5.5891E-02  1.0000E-02  1.0000E-02  1.0000E-02  0.4710      0.8099       1.007      0.9774      0.8047      0.5232    
       0.2090      2.5630E-02  1.0000E-02  1.0000E-02  1.0000E-02  1.0000E-02  1.0000E-02  1.0000E-02  1.0000E-02  1.0000E-02
       1.0000E-02  1.0000E-02  1.0000E-02  1.0000E-02  1.0000E-02  1.0000E-02  1.0000E-02  1.0000E-02  1.0000E-02  1.0000E-02
       1.0000E-02  1.0000E-02  1.0000E-02  1.0000E-02  1.0000E-02
   8   1.0000E-02  1.0000E-02  1.0000E-02  1.0000E-02  1.0000E-02  1.0000E-02  1.0000E-02  1.0000E-02  1.0000E-02  1.0000E-02
       1.0000E-02  1.0000E-02  1.0000E-02  1.0000E-02  1.0000E-02  1.0000E-02  1.0000E-02  1.0000E-02  1.0000E-02  1.0000E-02
       1.0000E-02  1.0000E-02  1.0000E-02  1.0000E-02  1.0000E-02  1.0000E-02  1.0000E-02  1.0000E-02  1.0000E-02  1.0000E-02
       1.0000E-02  1.0000E-02  1.0000E-02  1.0000E-02  1.0000E-02  1.0000E-02  1.0000E-02  1.0000E-02  1.0000E-02  1.0000E-02
       0.3002      0.4671      0.6416      0.9641       1.309       1.462       1.419       1.161      0.7499      0.2822    
       0.1002      1.0000E-02  1.0000E-02  1.0000E-02  1.0000E-02  1.0000E-02  1.0000E-02  1.0000E-02  1.0000E-02  1.0000E-02
       1.0000E-02  1.0000E-02  1.0000E-02  1.0000E-02  1.0000E-02  1.0000E-02  1.0000E-02  1.0000E-02  1.0000E-02  1.0000E-02
       1.0000E-02  1.0000E-02  1.0000E-02  1.0000E-02  1.0000E-02
   9   1.0000E-02  1.0000E-02  1.0000E-02  1.0000E-02  1.0000E-02  1.0000E-02  1.0000E-02  1.0000E-02  1.0000E-02  1.0000E-02
       1.0000E-02  1.0000E-02  1.0000E-02  1.0000E-02  1.0000E-02  1.0000E-02  1.0000E-02  1.0000E-02  1.0000E-02  1.0000E-02
       1.0000E-02  1.0000E-02  1.0000E-02  1.0000E-02  1.0000E-02  1.0000E-02  1.0000E-02  1.0000E-02  1.0000E-02  1.0000E-02
       1.0000E-02  1.0000E-02  1.0000E-02  1.0000E-02  1.0000E-02  1.0000E-02  1.0000E-02  1.0000E-02  1.0000E-02  1.0000E-02
       0.8133       1.235       1.495       1.740       2.016       2.038       1.734       1.210      0.4739      1.0000E-02
       1.0000E-02  1.0000E-02  1.0000E-02  1.0000E-02  1.0000E-02  1.0000E-02  1.0000E-02  1.0000E-02  1.0000E-02  1.0000E-02
       1.0000E-02  1.0000E-02  1.0000E-02  4.1840E-02  1.0000E-02  1.0000E-02  1.0000E-02  1.0000E-02  1.0000E-02  1.0000E-02
       1.0000E-02  1.0000E-02  1.0000E-02  1.0000E-02  1.0000E-02
  10   1.0000E-02  1.0000E-02  1.0000E-02  1.0000E-02  1.0000E-02  1.0000E-02  1.0000E-02  1.0000E-02  1.0000E-02  1.0000E-02
       1.0000E-02  1.0000E-02  1.0000E-02  1.0000E-02  1.0000E-02  1.0000E-02  1.0000E-02  1.0000E-02  1.0000E-02  1.0000E-02
       1.0000E-02  1.0000E-02  1.0000E-02  1.0000E-02  1.0000E-02  1.0000E-02  1.0000E-02  1.0000E-02  1.0000E-02  1.0000E-02
       1.0000E-02  1.0000E-02  1.0000E-02  1.0000E-02  1.0000E-02  0.2273      0.2152      1.0000E-02  1.0000E-02  0.7242    
        1.508       1.956       2.434       2.668       2.736       2.526       2.013       1.140      0.2942      1.0000E-02
       1.0000E-02  1.0000E-02  1.0000E-02  1.0000E-02  1.0000E-02  1.0000E-02  1.0000E-02  0.2474      0.2667      1.0000E-02
       1.0000E-02  0.2908      0.2843      0.1587      1.0000E-02  1.0000E-02  1.0000E-02  1.0000E-02  1.0000E-02  1.0000E-02
       1.0000E-02  1.0000E-02  1.0000E-02  1.0000E-02  1.0000E-02
  11   1.0000E-02  1.0000E-02  1.0000E-02  1.0000E-02  1.0000E-02  1.0000E-02  1.0000E-02  1.0000E-02  1.0000E-02  1.0000E-02
       1.0000E-02  1.0000E-02  1.0000E-02  1.0000E-02  1.0000E-02  1.0000E-02  1.0000E-02  1.0000E-02  1.0000E-02  1.0000E-02
       1.0000E-02  1.0000E-02  1.0000E-02  1.0000E-02  1.0000E-02  1.0000E-02  1.0000E-02  1.0000E-02  1.0000E-02  1.0000E-02
       1.0000E-02  1.0000E-02  7.3051E-02  0.2468      0.5446      0.8094      0.9331      0.8510       1.070       1.802    
        2.327       2.942       3.431       3.504       3.368       2.966       2.186      0.9002      1.0000E-02  1.0000E-02
       1.0000E-02  1.0000E-02  1.0000E-02  1.0000E-02  1.0000E-02  9.9349E-02  0.5612       1.051       1.154      0.9526    
       0.9464       1.076      0.8453      0.3891      1.0000E-02  1.0000E-02  1.0000E-02  1.0000E-02  1.0000E-02  1.0000E-02
       1.0000E-02  1.0000E-02  1.0000E-02  1.0000E-02  1.0000E-02
  12   1.0000E-02  1.0000E-02  1.0000E-02  1.0000E-02  1.0000E-02  1.0000E-02  1.0000E-02  1.0000E-02  1.0000E-02  1.0000E-02
       1.0000E-02  1.0000E-02  1.0000E-02  1.0000E-02  1.0000E-02  1.0000E-02  1.0000E-02  1.0000E-02  1.0000E-02  1.0000E-02
       1.0000E-02  1.0000E-02  1.0000E-02  1.0000E-02  1.0000E-02  1.0000E-02  1.0000E-02  1.0000E-02  1.0000E-02  1.0000E-02
       1.0000E-02  1.0000E-02  0.1303      0.4549      0.8976       1.329       1.710       2.001       2.349       2.804    
        3.417       4.067       4.215       4.203       3.983       3.481       2.538       1.027      1.0000E-02  1.0000E-02
       1.0000E-02  1.0000E-02  1.0000E-02  1.0000E-02  1.0000E-02  0.8908       1.704       2.098       2.278       2.285    
        2.187       2.003       1.568      0.8202      0.1006      1.0000E-02  1.0000E-02  1.0000E-02  1.0000E-02  1.0000E-02
       1.0000E-02  1.4737E-02  1.8496E-02  1.0000E-02  1.0000E-02
  13   1.0000E-02  1.0000E-02  1.0000E-02  1.0000E-02  1.0000E-02  1.0000E-02  1.0000E-02  1.0000E-02  1.0000E-02  1.0000E-02
       1.0000E-02  1.0000E-02  1.0000E-02  1.0000E-02  1.0000E-02  1.0000E-02  1.0000E-02  1.0000E-02  1.0000E-02  1.0000E-02
       1.0000E-02  1.0000E-02  1.0000E-02  1.0000E-02  1.0000E-02  1.0000E-02  1.0000E-02  1.0000E-02  1.0000E-02  1.0000E-02
       1.0000E-02  1.0000E-02  1.0000E-02  0.3663       1.085       1.751       2.333       2.823       3.232       3.839    
        4.614       4.976       5.019       5.000       4.766       4.229       3.179       1.518      1.0000E-02  1.0000E-02
       1.0000E-02  1.0000E-02  1.0000E-02  1.0000E-02   1.008       2.276       2.823       3.156       3.334       3.371    
        3.244       2.979       2.516       1.745      0.4856      1.0000E-02  1.0000E-02  1.0000E-02  1.0000E-02  1.0000E-02
       1.0000E-02  2.8009E-02  2.0599E-02  1.0000E-02  1.0000E-02
  14   1.0000E-02  1.0000E-02  1.0000E-02  1.0000E-02  1.0000E-02  1.0000E-02  1.0000E-02  1.0000E-02  1.0000E-02  1.0000E-02
       1.0000E-02  1.0000E-02  1.0000E-02  1.0000E-02  1.0000E-02  1.0000E-02  1.0000E-02  1.0000E-02  1.0000E-02  1.0000E-02
       1.0000E-02  1.0000E-02  1.0000E-02  1.0000E-02  1.0000E-02  1.0000E-02  1.0000E-02  1.3200E-02  1.0000E-02  1.0000E-02
       1.0000E-02  1.0000E-02  1.0000E-02  1.0000E-02   1.133       2.101       2.904       3.559       4.214       4.919    
        5.414       5.637       5.794       5.860       5.779       5.311       4.379       3.151       1.719       1.090    
       1.0000E-02  0.2965      0.9883       1.679       2.886       3.542       3.932       4.193       4.341       4.349    
        4.222       3.971       3.594       3.043       1.346      1.0000E-02  1.0000E-02  1.0000E-02  0.1554      0.2254    
       0.1789      6.4038E-02  1.0000E-02  1.0000E-02  1.0000E-02
  15   1.0000E-02  1.0000E-02  1.0000E-02  1.0000E-02  1.0000E-02  1.0000E-02  1.0000E-02  1.0000E-02  1.0000E-02  1.0000E-02
       1.0000E-02  1.0000E-02  1.0000E-02  1.0000E-02  1.0000E-02  1.0000E-02  1.0000E-02  1.0000E-02  1.0000E-02  1.0000E-02
       1.0000E-02  1.0000E-02  1.0000E-02  1.0000E-02  1.0000E-02  1.0000E-02  1.0000E-02  1.0000E-02  0.2382      0.1459    
       1.0000E-02  1.0000E-02  1.0000E-02  1.0000E-02   1.052       2.432       3.464       4.304       5.038       5.594    
        6.001       6.326       6.553       6.678       6.739       6.468       5.781       4.981       4.118       3.536    
        2.950       2.514       3.228       3.812       4.435       4.741       4.994       5.169       5.273       5.273    
        5.159       4.953       4.659       4.204       2.306      1.0000E-02  1.0000E-02  1.0000E-02  0.5721      0.5797    
       0.3140      8.0679E-02  1.0000E-02  1.0000E-02  1.0000E-02
  16   1.0000E-02  1.0000E-02  1.0000E-02  1.0000E-02  1.0000E-02  1.0000E-02  1.0000E-02  1.0000E-02  1.0000E-02  1.0000E-02
       1.0000E-02  1.0000E-02  1.0000E-02  1.0000E-02  1.0000E-02  1.0000E-02  1.0000E-02  1.0000E-02  1.0000E-02  1.0000E-02
       1.0000E-02  1.0000E-02  1.0000E-02  1.0000E-02  1.0000E-02  1.0000E-02  1.0000E-02  0.4745      0.7325      0.4960    
       1.0000E-02  1.0000E-02  1.0000E-02  1.0000E-02   1.227       2.853       3.982       4.855       5.565       6.122    
        6.583       6.946       7.178       7.288       7.319       7.307       7.009       6.590       6.018       5.605    
        5.362       5.176       5.269       5.503       5.718       5.878       6.002       6.079       6.126       6.124    
        6.045       5.909       5.711       5.404       4.252       2.190       1.651       1.377       1.285      0.9497    
       0.3984      1.0000E-02  1.0000E-02  1.0000E-02  1.0000E-02
  17   1.0000E-02  1.0000E-02  1.0000E-02  1.0000E-02  1.0000E-02  1.0000E-02  1.0000E-02  1.0000E-02  1.0000E-02  1.0000E-02
       1.0000E-02  1.0000E-02  1.0000E-02  1.0000E-02  1.0000E-02  1.0000E-02  1.0000E-02  1.0000E-02  1.0000E-02  1.0000E-02
       1.0000E-02  1.0000E-02  1.0000E-02  1.0000E-02  0.3878      0.6546      0.8884       1.384       1.504       1.317    
       0.6419      1.0000E-02  1.0000E-02  1.0000E-02   1.696       3.447       4.567       5.391       6.057       6.614    
        7.089       7.432       7.659       7.822       7.963       8.119       7.995       7.757       7.442       7.190    
        7.022       6.923       6.882       6.896       6.891       6.917       6.933       6.930       6.918       6.897    
        6.850       6.763       6.653       6.493       5.979       4.771       3.818       2.588       2.103       1.443    
       0.6078      5.1906E-02  1.0000E-02  1.0000E-02  1.0000E-02
  18   1.0000E-02  1.0000E-02  1.0000E-02  1.0000E-02  1.0000E-02  1.0000E-02  1.0000E-02  1.0000E-02  1.0000E-02  1.0000E-02
       1.0000E-02  1.0000E-02  1.0000E-02  1.0000E-02  1.0000E-02  1.0000E-02  1.0000E-02  1.0000E-02  1.0000E-02  4.2671E-02
       0.2030      0.3988      0.5865      0.8497       1.392       1.770       2.076       2.332       2.406       2.302    
        1.980       1.426       1.384       1.787       3.177       4.331       5.237       5.943       6.543       7.065    
        7.485       7.797       8.045       8.252       8.496       8.614       8.572       8.511       8.396       8.193    
        8.036       7.990       8.026       7.982       7.857       7.813       7.761       7.696       7.628       7.568    
        7.532       7.456       7.353       7.239       6.954       6.018       4.876       3.807       2.939       2.008    
       0.9284      1.0000E-02  1.0000E-02  1.0000E-02  1.0000E-02
  19   1.0000E-02  1.0000E-02  1.0000E-02  1.0000E-02  1.0000E-02  1.0000E-02  1.0000E-02  1.0000E-02  1.0000E-02  1.0000E-02
       1.0000E-02  1.0000E-02  1.0000E-02  1.0000E-02  1.0000E-02  1.0000E-02  1.0000E-02  1.0000E-02  1.0000E-02  1.0000E-02
       0.4713       1.047       1.461       1.872       2.315       2.682       2.994       3.182       3.281       3.278    
        3.213       3.132       3.267       3.709       4.459       5.203       5.886       6.464       6.974       7.432    
        7.794       8.071       8.320       8.548       8.763       8.880       8.912       8.922       8.891       8.773    
        8.720       8.695       8.709       8.676       8.576       8.525       8.438       8.330       8.212       8.120    
        8.060       7.990       7.897       7.787       7.510       6.680       5.759       4.748       3.725       2.510    
       0.9892      1.0000E-02  1.0000E-02  1.0000E-02  1.0000E-02
  20   1.0000E-02  1.0000E-02  1.0000E-02  1.0000E-02  1.0000E-02  1.0000E-02  1.0000E-02  1.0000E-02  1.0000E-02  1.0000E-02
       1.0000E-02  1.0000E-02  1.0000E-02  1.0000E-02  1.0000E-02  1.0000E-02  1.0000E-02  1.0000E-02  1.0000E-02  1.0000E-02
       0.7784       1.594       2.161       2.659       3.100       3.438       3.743       3.947       4.065       4.143    
        4.203       4.312       4.525       4.883       5.403       5.931       6.433       6.891       7.297       7.668    
        7.976       8.230       8.463       8.694       8.883       8.996       9.082       9.121       9.130       9.125    
        9.150       9.140       9.106       9.061       9.026       8.980       8.865       8.748       8.640       8.548    
        8.476       8.399       8.304       8.154       7.883       7.249       6.461       5.574       4.540       3.143    
        1.219      1.0000E-02  1.0000E-02  1.0000E-02  1.0000E-02
  21   1.0000E-02  1.0000E-02  1.0000E-02  1.0000E-02  1.0000E-02  1.0000E-02  1.0000E-02  1.0000E-02  1.0000E-02  1.0000E-02
       1.0000E-02  1.0000E-02  1.0000E-02  1.0000E-02  1.0000E-02  1.0000E-02  1.0000E-02  1.0000E-02  1.0000E-02  0.5287    
        1.480       2.210       2.785       3.287       3.717       4.081       4.372       4.593       4.727       4.853    
        4.973       5.160       5.391       5.660       6.027       6.431       6.834       7.184       7.493       7.798    
        8.049       8.263       8.477       8.683       8.853       8.976       9.079       9.150       9.198       9.254    
        9.302       9.318       9.299       9.270       9.245       9.203       9.105       9.010       8.920       8.838    
        8.768       8.698       8.610       8.460       8.184       7.717       7.112       6.383       5.471       4.089    
        1.603      1.0000E-02  1.0000E-02  1.0000E-02  1.0000E-02
  22   1.0000E-02  1.0000E-02  1.0000E-02  1.0000E-02  1.0000E-02  1.0000E-02  1.0000E-02  1.0000E-02  1.0000E-02  1.0000E-02
       1.0000E-02  1.0000E-02  1.0000E-02  1.0000E-02  1.0000E-02  1.0000E-02  1.0000E-02  1.0000E-02  0.4130       1.328    
        2.127       2.779       3.338       3.815       4.238       4.597       4.867       5.082       5.244       5.392    
        5.540       5.736       5.953       6.176       6.450       6.768       7.074       7.321       7.554       7.774    
        7.974       8.169       8.367       8.559       8.699       8.815       8.952       9.038       9.099       9.165    
        9.218       9.254       9.277       9.287       9.289       9.242       9.179       9.128       9.061       8.998    
        8.946       8.893       8.818       8.694       8.483       8.158       7.726       7.206       6.597       5.859    
        3.842       1.553      1.0000E-02  1.0000E-02  1.0000E-02
  23   1.0000E-02  1.0000E-02  1.0000E-02  1.0000E-02  1.0000E-02  1.0000E-02  1.0000E-02  1.0000E-02  1.0000E-02  1.0000E-02
       1.0000E-02  1.0000E-02  1.0000E-02  1.0000E-02  1.0000E-02  1.0000E-02  1.0000E-02  1.0000E-02  0.8350       1.911    
        2.686       3.284       3.805       4.250       4.632       4.967       5.251       5.460       5.632       5.769    
        5.923       6.100       6.297       6.485       6.680       6.909       7.151       7.330       7.476       7.632    
        7.783       7.936       8.110       8.262       8.387       8.513       8.653       8.772       8.855       8.946    
        9.010       9.063       9.118       9.149       9.152       9.142       9.124       9.116       9.074       9.034    
        9.009       8.981       8.942       8.854       8.725       8.524       8.267       7.968       7.655       7.333    
        6.436       5.100       3.865       4.985       10.80    
  24   1.0000E-02  1.0000E-02  1.0000E-02  1.0000E-02  1.0000E-02  1.0000E-02  1.0000E-02  1.0000E-02  1.0000E-02  1.0000E-02
       1.0000E-02  1.0000E-02  1.0000E-02  1.0000E-02  1.0000E-02  1.0000E-02  1.0000E-02  1.0000E-02   1.435       2.457    
        3.180       3.722       4.193       4.594       4.933       5.229       5.488       5.711       5.869       5.991    
        6.131       6.290       6.463       6.612       6.745       6.882       7.043       7.170       7.259       7.355    
        7.457       7.569       7.688       7.814       7.940       8.069       8.203       8.360       8.465       8.583    
        8.669       8.734       8.834       8.881       8.905       8.927       8.941       8.961       8.956       8.947    
        8.950       8.954       8.962       8.923       8.881       8.795       8.704       8.618       8.564       8.540    
        8.740       8.394       8.312       9.178       10.96    
  25   1.0000E-02  1.0000E-02  1.0000E-02  1.0000E-02  1.0000E-02  1.0000E-02  1.0000E-02  1.0000E-02  1.0000E-02  1.0000E-02
       1.0000E-02  1.0000E-02  8.2227E-02  1.0000E-02  1.0000E-02  1.0000E-02  1.0000E-02  0.7810       2.075       2.953    
        3.601       4.090       4.500       4.844       5.135       5.385       5.621       5.815       5.935       6.059    
        6.176       6.296       6.417       6.555       6.655       6.716       6.808       6.880       6.916       6.946    
        7.000       7.061       7.141       7.248       7.360       7.487       7.630       7.789       7.921       8.052    
        8.177       8.276       8.406       8.478       8.535       8.594       8.639       8.705       8.722       8.737    
        8.772       8.828       8.853       8.874       8.904       8.943       9.007       9.101       9.255       9.495    
        9.965       10.40       10.77       11.27       11.09    
  26   1.0000E-02  1.0000E-02  1.0000E-02  1.0000E-02  1.0000E-02  1.0000E-02  1.0000E-02  1.0000E-02  0.1496      0.3329    
       0.3753      1.0000E-02  0.3666      1.0000E-02  1.0000E-02  1.0000E-02  1.0000E-02   1.371       2.678       3.465    
        4.003       4.395       4.737       5.019       5.227       5.424       5.609       5.768       5.876       5.979    
        6.076       6.168       6.253       6.351       6.408       6.415       6.450       6.467       6.437       6.410    
        6.406       6.411       6.452       6.537       6.639       6.761       6.921       7.076       7.232       7.395    
        7.550       7.691       7.840       7.959       8.053       8.140       8.229       8.304       8.351       8.406    
        8.476       8.578       8.635       8.710       8.818       8.958       9.145       9.382       9.669       10.01    
        10.37       11.25       11.94       12.14       11.21    
  27   1.0000E-02  1.0000E-02  1.0000E-02  1.0000E-02  1.0000E-02  1.0000E-02  1.0000E-02  1.0000E-02  0.4302      0.9889    
        1.323       1.471       1.507       1.186       1.180       1.261       1.595       2.665       3.423       3.981    
        4.345       4.611       4.861       5.070       5.198       5.340       5.467       5.584       5.684       5.771    
        5.844       5.910       5.962       6.010       6.020       5.987       5.962       5.911       5.837       5.768    
        5.694       5.641       5.638       5.679       5.773       5.908       6.076       6.252       6.423       6.623    
        6.808       6.989       7.154       7.324       7.460       7.578       7.707       7.791       7.863       7.946    
        8.042       8.159       8.278       8.415       8.589       8.820       9.116       9.481       9.872       10.31    
        10.68       11.56       12.46       12.51       11.30    
  28   1.0000E-02  1.0000E-02  1.0000E-02  1.0000E-02  1.0000E-02  1.0000E-02  1.0000E-02  1.0000E-02  0.7038       1.654    
        2.254       2.640       2.832       2.873       2.952       3.095       3.345       3.752       4.103       4.395    
        4.579       4.721       4.846       4.961       5.042       5.129       5.211       5.292       5.379       5.452    
        5.495       5.535       5.565       5.563       5.518       5.453       5.389       5.291       5.158       5.001    
        4.838       4.674       4.589       4.589       4.667       4.832       5.076       5.300       5.494       5.719    
        5.956       6.183       6.391       6.589       6.769       6.925       7.052       7.150       7.231       7.323    
        7.435       7.596       7.772       7.965       8.204       8.516       8.906       9.378       9.872       10.41    
        10.89       11.41       12.47       12.75       11.37    
  29   1.0000E-02  1.0000E-02  1.0000E-02  1.0000E-02  1.0000E-02  1.0000E-02  1.0000E-02  1.0000E-02   1.184       2.454    
        3.233       3.724       4.026       4.180       4.266       4.373       4.480       4.589       4.667       4.731    
        4.744       4.714       4.718       4.744       4.762       4.796       4.834       4.880       4.952       5.019    
        5.053       5.078       5.079       5.039       4.947       4.846       4.719       4.548       4.327       4.027    
        3.729       3.295       3.129       3.084       3.127       3.305       3.779       4.082       4.337       4.621    
        4.964       5.272       5.546       5.789       6.002       6.172       6.266       6.288       6.333       6.427    
        6.572       6.769       7.015       7.288       7.620       8.047       8.528       9.073       9.703       10.32    
        10.89       11.37       12.14       12.52       11.41    
  30   1.0000E-02  1.0000E-02  1.0000E-02  1.0000E-02  1.0000E-02  1.0000E-02  1.0000E-02  0.7468       2.332       3.493    
        4.300       4.813       5.130       5.304       5.376       5.378       5.318       5.240       5.124       4.976    
        4.785       4.563       4.428       4.364       4.355       4.344       4.332       4.348       4.398       4.466    
        4.518       4.537       4.502       4.418       4.289       4.141       3.924       3.635       3.281       2.754    
        2.400       2.063       1.964       1.916       1.918       1.969       2.262       2.532       2.786       3.102    
        3.704       4.156       4.567       4.892       5.140       5.319       5.341       5.135       5.080       5.161    
        5.353       5.615       5.932       6.278       6.686       7.372       7.980       8.612       9.391       10.16    
        10.85       11.40       11.79       12.17       11.44    
  31   1.0000E-02  1.0000E-02  1.0000E-02  1.0000E-02  1.0000E-02  0.3511      1.0000E-02   1.711       3.495       4.659    
        5.423       5.914       6.202       6.337       6.352       6.263       6.084       5.843       5.525       5.135    
        4.678       4.207       3.932       3.769       3.761       3.698       3.644       3.646       3.702       3.797    
        3.858       3.880       3.826       3.698       3.488       3.278       2.966       2.467       2.064       1.668    
        1.514       1.457       1.369       1.319       1.305       1.303       1.258       1.384       1.574       1.773    
        2.235       2.719       3.384       3.864       4.181       4.368       4.390       4.268       4.139       4.232    
        4.469       4.791       5.157       5.524       5.836       6.500       7.168       7.819       8.937       9.996    
        10.87       11.44       11.78       12.02       11.44    
  32   1.0000E-02  1.0000E-02  1.0000E-02  1.0000E-02  0.9168       1.811       2.123       3.701       4.995       5.944    
        6.603       7.030       7.265       7.352       7.275       7.075       6.841       6.438       5.895       5.240    
        4.463       3.781       3.430       3.153       2.946       2.751       2.651       2.638       2.705       2.942    
        3.036       3.050       2.982       2.802       2.436       2.198       1.876       1.483       1.283       1.146    
       0.9851      0.7844      0.6377      0.5883      0.5744      0.5798      0.6080      0.7751      0.9993       1.180    
        1.307       1.508       2.003       2.687       3.105       3.291       3.384       3.605       3.640       3.821    
        4.125       4.508       4.924       5.344       5.747       6.163       6.583       6.951       8.350       9.920    
        11.03       11.59       11.84       11.87       11.44    
  33   1.0000E-02  1.0000E-02  1.0000E-02  0.7584       2.381       3.569       4.493       5.617       6.555       7.283    
        7.800       8.135       8.326       8.457       8.282       7.857       7.334       6.805       6.099       5.285    
        4.432       3.657       3.065       2.619       2.198       1.953       1.829       1.793       1.802       1.936    
        1.999       1.986       1.928       1.775       1.535       1.393       1.222       1.069      0.8283      0.5562    
       0.3958      0.2190      1.0000E-02  1.0000E-02  1.0000E-02  1.0000E-02  1.0000E-02  1.0000E-02  0.3707      0.5487    
       0.7913      0.9534       1.014       1.399       1.915       2.060       1.953       2.348       2.905       3.236    
        3.659       4.141       4.639       5.128       5.598       6.036       6.446       6.735       8.524       10.62    
        11.50       11.84       11.95       11.81       11.42    
  34   1.0000E-02  1.0000E-02  1.0000E-02   1.803       3.908       5.355       6.432       7.348       8.104       8.626    
        8.974       9.197       9.367       9.294       9.015       8.526       7.816       7.090       6.250       5.303    
        4.289       3.289       2.456       1.954       1.657       1.456       1.345       1.318       1.313       1.237    
        1.213       1.188       1.157       1.124       1.127       1.030      0.8662      0.6416      0.3165      1.0000E-02
       1.0000E-02  1.0000E-02  1.0000E-02  1.0000E-02  1.0000E-02  1.0000E-02  1.0000E-02  1.0000E-02  1.0000E-02  1.0000E-02
       0.2641      0.3984      0.4515      0.4949      0.7428      0.7962      0.6955       1.143       1.905       2.503    
        3.092       3.700       4.311       4.886       5.434       5.909       6.381       6.689       9.177       11.44    
        12.21       12.25       12.10       11.84       11.40    
  35   1.0000E-02  1.0000E-02  1.0000E-02   3.676       5.805       7.246       8.268       9.015       9.597       9.949    
        10.10       10.20       10.14       9.843       9.486       8.968       8.272       7.438       6.468       5.338    
        4.058       2.679       1.403      0.9874      0.9298      0.7854      0.6671      0.7248      0.8080      0.8258    
       0.8252      0.8141      0.7866      0.7535      0.7207      0.6407      0.4912      0.2418      1.0000E-02  1.0000E-02
       1.0000E-02  1.0000E-02  1.0000E-02  1.0000E-02  1.0000E-02  1.0000E-02  1.0000E-02  1.0000E-02  1.0000E-02  1.0000E-02
       1.0000E-02  1.0000E-02  1.0000E-02  1.0000E-02  0.1059      8.9233E-02  1.0000E-02  0.5058       1.043       1.735    
        2.468       3.215       3.970       4.626       5.297       5.734       7.623       9.250       11.46       12.78    
        12.98       12.73       12.33       11.86       11.35    
  36   1.0000E-02   2.539       4.656       6.648       8.167       9.291       10.08       10.66       11.04       11.22    
        11.13       10.88       10.67       10.41       10.07       9.554       8.826       7.897       6.785       5.463    
        3.848       1.863      1.0000E-02  1.0000E-02  0.2040      1.0000E-02  1.0000E-02  1.0000E-02  0.2761      0.3457    
       0.3641      0.3786      0.3489      0.3243      0.3004      0.2562      0.1625      1.0000E-02  1.0000E-02  1.0000E-02
       1.0000E-02  1.0000E-02  1.0000E-02  1.0000E-02  1.0000E-02  1.0000E-02  1.0000E-02  1.0000E-02  1.0000E-02  1.0000E-02
       1.0000E-02  1.0000E-02  1.0000E-02  1.0000E-02  1.0000E-02  1.0000E-02  1.0000E-02  1.0000E-02  1.0000E-02  0.8957    
        1.801       2.688       3.679       4.283       6.510       8.397       10.83       12.33       13.50       13.78    
        13.50       13.08       12.50       11.89       11.30    
  37    13.61       9.600       9.138       9.781       10.62       11.36       11.91       12.32       12.50       12.52    
        12.31       11.73       11.21       10.98       10.80       10.30       9.532       8.509       7.242       5.807    
        3.934       1.695      1.0000E-02  1.0000E-02  1.0000E-02  1.0000E-02  1.0000E-02  1.0000E-02  1.0000E-02  1.0000E-02
       1.0000E-02  6.7852E-02  1.0000E-02  1.0000E-02  1.0000E-02  1.0000E-02  1.0000E-02  1.0000E-02  1.0000E-02  1.0000E-02
       1.0000E-02  1.0000E-02  1.0000E-02  1.0000E-02  1.0000E-02  1.0000E-02  1.0000E-02  1.0000E-02  1.0000E-02  1.0000E-02
       1.0000E-02  1.0000E-02  1.0000E-02  1.0000E-02  1.0000E-02  1.0000E-02  1.0000E-02  1.0000E-02  1.0000E-02  1.0000E-02
        1.119       2.011       4.491       6.897       9.794       11.87       13.74       14.58       14.79       14.44    
        13.97       13.35       12.56       11.87       11.24    
  38    14.33       12.82       12.28       12.41       12.86       13.33       13.68       13.92       13.98       13.90    
        13.64       13.17       12.54       12.28       11.80       11.26       10.44       9.317       7.808       6.306    
        4.326       1.697      1.0000E-02  1.0000E-02  1.0000E-02  1.0000E-02  1.0000E-02  1.0000E-02  1.0000E-02  1.0000E-02
       1.0000E-02  1.0000E-02  1.0000E-02  1.0000E-02  1.0000E-02  1.0000E-02  1.0000E-02  1.0000E-02  1.0000E-02  1.0000E-02
       1.0000E-02  1.0000E-02  1.0000E-02  1.0000E-02  1.0000E-02  1.0000E-02  1.0000E-02  1.0000E-02  1.0000E-02  1.0000E-02
       1.0000E-02  1.0000E-02  1.0000E-02  1.0000E-02  1.0000E-02  1.0000E-02  1.0000E-02  1.0000E-02  1.0000E-02  1.0000E-02
       0.6150       3.357       7.188       9.984       12.35       14.31       15.46       15.70       15.48       15.03    
        14.38       13.44       12.49       11.85       11.17    
  39    15.09       14.69       14.49       14.57       14.82       15.12       15.35       15.45       15.42       15.28    
        15.00       14.60       14.09       13.77       13.11       12.44       11.59       10.47       9.013       7.256    
        4.568       1.498      1.0000E-02  1.0000E-02  1.0000E-02  1.0000E-02  1.0000E-02  1.0000E-02  1.0000E-02  1.0000E-02
       1.0000E-02  1.0000E-02  1.0000E-02  1.0000E-02  1.0000E-02  1.0000E-02  1.0000E-02  1.0000E-02  1.0000E-02  1.0000E-02
       1.0000E-02  1.0000E-02  1.0000E-02  1.0000E-02  1.0000E-02  1.0000E-02  1.0000E-02  1.0000E-02  1.0000E-02  1.0000E-02
       1.0000E-02  1.0000E-02  1.0000E-02  1.0000E-02  1.0000E-02  1.0000E-02  1.0000E-02  1.0000E-02  1.0000E-02  1.0000E-02
        2.044       6.046       9.447       12.16       14.24       15.77       16.21       16.37       16.13       15.66    
        14.91       13.65       12.35       11.80       11.10    
  40    15.90       16.04       16.17       16.32       16.54       16.71       16.85       16.89       16.80       16.62    
        16.35       15.95       15.46       14.80       14.35       13.73       12.93       11.89       10.45       8.528    
        5.410       2.434       1.531       1.070      0.7873      0.4426      0.2814      1.0000E-02  1.0000E-02  1.0000E-02
       1.0000E-02  1.0000E-02  1.0000E-02  1.0000E-02  1.0000E-02  1.0000E-02  1.0000E-02  1.0000E-02  1.0000E-02  1.0000E-02
       1.0000E-02  1.0000E-02  1.0000E-02  1.0000E-02  1.0000E-02  1.0000E-02  1.0000E-02  1.0000E-02  1.0000E-02  1.0000E-02
       1.0000E-02  1.0000E-02  1.0000E-02  1.0000E-02  1.0000E-02  1.0000E-02  1.0000E-02  1.0000E-02  1.0000E-02  1.0000E-02
        3.319       7.816       11.30       13.97       15.90       17.09       17.38       17.30       16.87       16.38    
        15.51       13.79       12.31       11.74       11.03    
  41    16.74       17.18       17.53       17.76       17.99       18.17       18.20       18.19       18.08       17.91    
        17.66       17.19       16.53       15.92       15.66       15.14       14.45       13.64       12.10       10.15    
        7.675       4.619       3.169       2.345       1.916       1.594      0.8673      0.4759      0.2784      1.0000E-02
       1.0000E-02  1.0000E-02  1.0000E-02  1.0000E-02  1.0000E-02  1.0000E-02  1.0000E-02  1.0000E-02  1.0000E-02  1.0000E-02
       1.0000E-02  1.0000E-02  1.0000E-02  1.0000E-02  1.0000E-02  1.0000E-02  1.0000E-02  1.0000E-02  1.0000E-02  1.0000E-02
       1.0000E-02  1.0000E-02  1.0000E-02  1.0000E-02  1.0000E-02  1.0000E-02  1.0000E-02  1.0000E-02  1.0000E-02   1.598    
        5.616       9.612       12.98       15.55       17.36       18.44       18.78       18.47       18.08       17.32    
        16.13       14.04       12.32       11.69       10.94    
  42    17.60       18.20       18.65       18.98       19.22       19.40       19.44       19.40       19.30       19.18    
        19.04       18.81       18.39       17.77       17.15       16.66       16.02       14.98       13.95       12.07    
        9.926       7.227       5.017       4.628       4.101       3.798       2.735       1.771      0.8194      0.3349    
       1.0000E-02  1.0000E-02  1.0000E-02  1.0000E-02  1.0000E-02  1.0000E-02  1.0000E-02  1.0000E-02  1.0000E-02  1.0000E-02
       3.5439E-02  2.0171E-02  1.0000E-02  1.0000E-02  1.0000E-02  1.0000E-02  1.0000E-02  1.0000E-02  1.0000E-02  1.0000E-02
       1.0000E-02  1.0000E-02  1.0000E-02  1.0000E-02  1.0000E-02  1.0000E-02  1.0000E-02  1.0000E-02  1.0000E-02   2.482    
        6.929       10.95       14.20       16.69       18.55       19.50       19.68       19.47       19.22       18.33    
        16.78       14.33       12.35       11.66       10.84    
  43    18.48       19.19       19.68       20.06       20.33       20.49       20.55       20.54       20.49       20.44    
        20.44       20.50       20.24       19.74       18.86       18.29       17.84       16.86       15.72       14.11    
        12.32       10.36       8.311       7.874       7.172       6.344       5.310       4.116       2.606       1.542    
       0.9020      0.7002      0.4137      1.0000E-02  1.0000E-02  0.1771      0.1492      0.1262      9.6191E-02  8.0471E-02
       7.6012E-02  1.9962E-02  1.2915E-02  1.0000E-02  1.0000E-02  1.0000E-02  1.0000E-02  1.0000E-02  1.0000E-02  1.0000E-02
       1.0000E-02  1.0000E-02  1.0000E-02  1.0000E-02  1.0000E-02  1.0000E-02  1.0000E-02  1.0000E-02  1.0000E-02   2.832    
        7.600       11.59       14.92       17.36       19.22       20.00       20.13       20.09       20.01       19.07    
        17.30       14.58       12.37       11.62       10.73    
  44    19.39       20.13       20.66       21.06       21.34       21.51       21.61       21.63       21.57       21.58    
        21.65       21.74       21.29       20.80       20.23       19.76       19.41       19.06       17.66       16.13    
        14.59       13.13       11.74       10.80       9.831       8.724       7.535       6.228       4.727       3.206    
        2.153       1.763       1.300      0.8317      0.6059      0.5877      0.6365      0.5173      0.2975      0.1225    
       4.8268E-02  1.0000E-02  1.0000E-02  1.0000E-02  1.0000E-02  1.0000E-02  1.0000E-02  1.0000E-02  1.0000E-02  1.0000E-02
       1.0000E-02  1.0000E-02  1.0000E-02  1.0000E-02  1.0000E-02  1.0000E-02  1.0000E-02  1.0000E-02  1.0000E-02   1.932    
        6.990       11.50       15.03       17.58       19.41       20.22       20.48       20.72       20.60       19.62    
        17.72       14.77       12.36       11.56       10.61    
  45    20.33       21.05       21.59       22.00       22.28       22.48       22.61       22.65       22.81       22.91    
        23.03       22.65       22.32       21.89       21.43       21.01       20.70       20.65       19.53       18.04    
        16.68       15.42       14.22       13.14       12.07       10.90       9.600       8.146       6.465       4.750    
        3.411       2.863       2.155       1.758       1.658       1.514       1.385      0.9863      0.5062      0.1782    
       1.0000E-02  1.0000E-02  1.0000E-02  1.0000E-02  1.0000E-02  1.0000E-02  1.0000E-02  1.0000E-02  1.0000E-02  1.0000E-02
       1.0000E-02  1.0000E-02  1.0000E-02  1.0000E-02  1.0000E-02  1.0000E-02  1.0000E-02  1.0000E-02  1.0000E-02  1.0000E-02
        5.122       10.92       14.77       17.46       19.32       20.39       20.95       21.25       20.99       19.96    
        18.04       14.96       12.37       11.47       10.48    
  46    21.28       21.92       22.45       22.88       23.21       23.45       23.60       23.90       24.21       24.29    
        24.28       23.77       23.37       22.95       22.50       22.06       21.68       21.45       20.84       19.68    
        18.53       17.42       16.29       15.18       14.08       12.89       11.56       9.995       7.912       5.881    
        4.728       4.080       3.670       3.246       3.111       2.703       2.125       1.252      0.5883      0.3529    
       0.1447      1.0000E-02  1.0000E-02  1.0000E-02  1.0000E-02  1.0000E-02  1.0000E-02  1.0000E-02  1.0000E-02  1.0000E-02
       1.0000E-02  1.0000E-02  1.0000E-02  1.0000E-02  1.0000E-02  1.0000E-02  1.0000E-02  1.0000E-02  1.0000E-02   1.624    
        6.340       10.88       14.47       17.18       19.10       20.36       21.09       21.38       21.11       20.11    
        18.25       15.22       12.40       11.34       10.32    
  47    22.21       22.77       23.29       23.75       24.19       24.46       24.87       25.33       25.51       25.34    
        25.01       24.72       24.37       23.94       23.44       22.97       22.42       22.16       21.99       21.11    
        20.14       19.23       18.20       17.11       16.00       14.82       13.51       11.97       10.17       8.120    
        6.802       5.979       5.636       5.082       4.505       3.788       2.860       1.593      0.7010      0.4751    
       0.2355      1.0000E-02  1.0000E-02  1.0000E-02  1.0000E-02  1.0000E-02  1.0000E-02  1.0000E-02  1.0000E-02  1.0000E-02
       1.0000E-02  1.0000E-02  1.0000E-02  1.0000E-02  1.0000E-02  1.0000E-02  1.0000E-02  1.0000E-02  1.0000E-02   2.197    
        6.531       10.55       13.99       16.70       18.67       20.04       20.87       21.19       20.95       20.03    
        18.36       15.92       12.91       10.99       10.15    
  48    23.07       23.61       24.08       24.53       25.29       25.84       26.29       26.67       26.74       26.37    
        25.90       25.66       25.34       24.92       24.24       23.86       23.65       23.41       23.35       22.76    
        21.90       20.90       19.94       18.88       17.77       16.59       15.30       13.84       12.22       10.64    
        9.336       8.284       7.446       6.619       5.766       4.821       3.584       2.073      0.8570      0.5890    
       0.3439      0.1349      1.0000E-02  1.0000E-02  1.0000E-02  1.0000E-02  1.0000E-02  1.0000E-02  1.0000E-02  1.0000E-02
       1.0000E-02  1.0000E-02  1.0000E-02  1.0000E-02  1.0000E-02  1.0000E-02  1.0000E-02  1.0000E-02  1.0000E-02   1.570    
        5.867       9.957       13.36       16.02       18.01       19.44       20.31       20.65       20.45       19.59    
        18.11       15.90       12.85       10.72       9.970    
  49    23.88       24.37       24.72       25.90       26.72       27.01       27.49       27.99       27.94       27.42    
        26.84       26.60       26.32       26.11       25.59       25.26       25.29       24.99       24.76       24.41    
        23.59       22.55       21.51       20.45       19.34       18.13       16.85       15.45       13.92       12.45    
        11.14       9.923       8.856       7.859       6.876       5.892       4.539       3.013       1.801       1.018    
       0.3985      0.2085      1.0000E-02  1.0000E-02  1.0000E-02  1.0000E-02  1.0000E-02  1.0000E-02  1.0000E-02  1.0000E-02
       1.0000E-02  1.0000E-02  1.0000E-02  1.0000E-02  1.0000E-02  1.0000E-02  1.0000E-02  1.0000E-02  1.0000E-02  1.0000E-02
        4.092       9.083       12.46       15.08       17.10       18.54       19.42       19.78       19.61       18.81    
        17.39       15.09       12.16       10.44       9.748    
  50    24.64       25.09       26.47       27.96       27.97       28.85       29.68       29.55       29.18       28.51    
        27.80       27.49       27.14       27.20       27.08       26.91       26.78       26.59       26.31       25.84    
        25.00       23.99       22.92       21.83       20.71       19.48       18.12       16.71       15.24       13.79    
        12.44       11.11       9.871       8.764       7.693       6.668       5.481       3.996       2.796       1.889    
       0.9087      0.3069      0.1551      9.0697E-02  5.7759E-02  3.5565E-02  1.0000E-02  1.0000E-02  1.0000E-02  1.0000E-02
       1.0000E-02  1.0000E-02  1.0000E-02  1.0000E-02  1.0000E-02  1.0000E-02  1.0000E-02  1.0000E-02  1.0000E-02  1.0000E-02
        4.013       8.164       11.36       13.90       15.90       17.33       18.23       18.58       18.45       17.70    
        16.25       13.59       11.06       10.24       9.506    
  51    25.31       27.16       29.20       30.48       30.91       31.60       31.54       31.08       30.24       29.22    
        28.81       28.35       28.21       28.26       28.31       28.23       28.27       28.14       27.71       27.06    
        26.21       25.21       24.14       23.02       21.87       20.61       19.21       17.74       16.24       14.77    
        13.33       11.92       10.57       9.340       8.173       7.021       5.852       4.637       3.495       2.538    
        1.665      0.8999      0.5671      0.3951      0.2808      0.2061      0.1037      4.0645E-02  1.0000E-02  1.0000E-02
       1.0000E-02  1.0000E-02  1.0000E-02  1.0000E-02  1.0000E-02  1.0000E-02  1.0000E-02  1.0000E-02  1.0000E-02  1.0000E-02
        2.710       6.789       9.937       12.44       14.40       15.80       16.68       17.02       16.87       16.27    
        14.90       12.63       10.68       9.831       9.319    
  52    25.88       29.30       31.60       32.52       32.94       32.92       32.46       32.07       31.48       30.36    
        29.76       29.41       29.37       29.22       29.38       29.49       29.53       29.29       28.76       28.09    
        27.25       26.23       25.17       24.05       22.86       21.59       20.19       18.66       17.09       15.53    
        13.98       12.44       11.00       9.667       8.402       7.172       5.981       4.832       3.778       2.849    
        2.025       1.349      0.9245      0.6628      0.4944      0.3641      0.1774      5.1542E-02  1.0000E-02  1.0000E-02
       1.0000E-02  1.0000E-02  1.0000E-02  1.0000E-02  1.0000E-02  1.0000E-02  1.0000E-02  1.0000E-02  1.0000E-02  1.0000E-02
        1.505       5.160       8.314       10.73       12.60       13.92       14.75       15.06       14.88       14.40    
        13.37       11.67       10.07       8.977       8.945    
  53    26.35       30.34       32.49       33.39       33.41       33.38       33.19       32.82       32.39       31.58    
        30.57       30.66       30.38       29.97       30.33       30.66       30.47       30.13       29.62       28.96    
        28.11       27.11       26.04       24.93       23.75       22.45       21.02       19.46       17.79       16.10    
        14.40       12.73       11.15       9.717       8.377       7.098       5.899       4.786       3.744       2.817    
        2.022       1.385      0.9214      0.6482      0.4885      0.3035      9.3006E-02  1.0000E-02  1.0000E-02  1.0000E-02
       1.0000E-02  1.0000E-02  1.0000E-02  1.0000E-02  1.0000E-02  1.0000E-02  1.0000E-02  1.0000E-02  1.0000E-02  1.0000E-02
       1.0000E-02   2.911       6.448       8.777       10.49       11.68       12.39       12.64       12.44       12.10    
        10.84       9.550       8.333       7.715       8.061    
  54    26.72       30.46       32.77       33.57       33.69       33.76       33.77       33.53       33.23       32.83    
        32.12       32.27       31.94       31.34       31.64       31.76       31.43       30.96       30.37       29.68    
        28.84       27.85       26.78       25.70       24.53       23.23       21.76       20.13       18.36       16.49    
        14.60       12.73       10.92       9.385       8.050       6.770       5.559       4.455       3.427       2.484    
        1.684       1.088      0.5695      0.3818      0.2989      0.1199      1.0000E-02  1.0000E-02  1.0000E-02  1.0000E-02
       1.0000E-02  1.0000E-02  1.0000E-02  1.0000E-02  1.0000E-02  1.0000E-02  1.0000E-02  1.0000E-02  1.0000E-02  1.0000E-02
       1.0000E-02   2.039       4.833       6.657       7.974       9.013       9.597       9.730       9.511       8.940    
        7.488       6.394       5.438       5.813       6.839    
  55    27.01       30.35       32.69       33.52       33.80       34.11       34.29       34.16       34.00       33.80    
        33.58       33.63       33.44       33.11       33.03       32.72       32.31       31.75       31.05       30.32    
        29.54       28.61       27.46       26.33       25.23       23.93       22.42       20.70       18.77       16.63    
        14.56       12.47       10.20       8.567       7.342       6.172       4.956       3.801       2.805       1.872    
       0.9744      0.4646      8.3744E-02  6.0801E-02  6.9364E-02  1.0000E-02  1.0000E-02  1.0000E-02  1.0000E-02  1.0000E-02
       1.0000E-02  1.0000E-02  1.0000E-02  1.0000E-02  1.0000E-02  1.0000E-02  1.0000E-02  1.0000E-02  1.0000E-02  1.0000E-02
       1.0000E-02   1.425       3.225       4.198       4.751       5.737       6.276       6.397       6.129       4.980    
        2.998       2.134      1.0000E-02   2.780       5.541    
  56    27.22       30.17       32.41       33.19       33.79       34.36       34.68       34.66       34.61       34.55    
        34.48       34.45       34.33       34.21       34.00       33.58       33.10       32.53       31.85       31.00    
        30.06       29.06       28.04       26.91       25.73       24.44       22.93       21.15       19.03       16.42    
        14.40       12.09       8.587       7.122       6.252       5.345       4.095       2.712       1.890       1.058    
       0.3051      0.1474      1.0000E-02  1.0000E-02  1.0000E-02  1.0000E-02  1.0000E-02  1.0000E-02  1.0000E-02  1.0000E-02
       1.0000E-02  1.0000E-02  1.0000E-02  1.0000E-02  1.0000E-02  1.0000E-02  1.0000E-02  1.0000E-02  1.0000E-02  1.0000E-02
       1.0000E-02  0.7270       1.104       1.121      1.0000E-02   1.867       2.362       2.487       2.116       1.244    
       1.0000E-02  1.0000E-02  1.0000E-02  1.0000E-02  1.0000E-02
  57    27.35       29.96       32.06       32.89       33.75       34.48       34.89       34.99       35.06       35.08    
        35.09       35.06       34.99       34.86       34.62       34.24       33.76       33.20       32.52       31.65    
        30.58       29.42       28.35       27.24       26.08       24.79       23.29       21.52       19.46       17.06    
        14.32       10.34       6.487       5.910       5.489       4.597       3.028       1.751       1.337      0.8415    
       0.3431      1.0000E-02  1.0000E-02  1.0000E-02  1.0000E-02  1.0000E-02  1.0000E-02  1.0000E-02  1.0000E-02  1.0000E-02
       1.0000E-02  1.0000E-02  1.0000E-02  1.0000E-02  1.0000E-02  1.0000E-02  1.0000E-02  1.0000E-02  1.0000E-02  1.0000E-02
       9.0450E-02  0.1694      1.0000E-02  1.0000E-02  1.0000E-02  1.0000E-02  1.0000E-02  1.0000E-02  1.0000E-02  1.0000E-02
       1.0000E-02  1.0000E-02  1.0000E-02  1.0000E-02  1.0000E-02
  58    27.41       29.56       31.31       32.61       33.73       34.41       34.87       35.15       35.33       35.45    
        35.51       35.52       35.49       35.38       35.17       34.77       34.30       33.71       32.99       32.13    
        31.12       29.89       28.62       27.43       26.33       25.04       23.57       21.87       19.90       17.57    
        14.90       11.66       7.795       5.650       5.077       4.018       2.858       1.990       1.371      0.8189    
       1.0000E-02  1.0000E-02  1.0000E-02  1.0000E-02  1.0000E-02  1.0000E-02  1.0000E-02  1.0000E-02  1.0000E-02  1.0000E-02
       1.0000E-02  1.0000E-02  1.0000E-02  1.0000E-02  1.0000E-02  1.0000E-02  1.0000E-02  1.0000E-02  1.0000E-02  1.0000E-02
       1.0000E-02  1.0000E-02  1.0000E-02  1.0000E-02  1.0000E-02  1.0000E-02  1.0000E-02  1.0000E-02  1.0000E-02  1.0000E-02
       1.0000E-02  1.0000E-02  1.0000E-02  1.0000E-02  1.0000E-02
  59    27.42       29.49       31.17       32.47       33.47       34.20       34.77       35.18       35.46       35.66    
        35.78       35.84       35.84       35.73       35.50       35.13       34.61       33.99       33.25       32.37    
        31.36       30.19       28.89       27.67       26.56       25.26       23.81       22.16       20.27       18.13    
        15.71       12.96       10.04       7.421       5.935       4.189       2.534       1.972       1.332      0.8065    
       1.0000E-02  1.0000E-02  1.0000E-02  1.0000E-02  1.0000E-02  1.0000E-02  1.0000E-02  1.0000E-02  1.0000E-02  1.0000E-02
       1.0000E-02  1.0000E-02  1.0000E-02  1.0000E-02  1.0000E-02  1.0000E-02  1.0000E-02  1.0000E-02  1.0000E-02  1.0000E-02
       1.0000E-02  1.0000E-02  1.0000E-02  1.0000E-02  1.0000E-02  1.0000E-02  1.0000E-02  1.0000E-02  1.0000E-02  1.0000E-02
       1.0000E-02  1.0000E-02  1.0000E-02  1.0000E-02  1.0000E-02
  60    27.38       29.38       30.98       32.12       33.14       33.96       34.63       35.13       35.49       35.75    
        35.93       36.06       36.08       35.94       35.67       35.30       34.73       34.10       33.38       32.48    
        31.46       30.32       29.00       27.84       26.76       25.48       24.03       22.43       20.61       18.60    
        16.42       14.06       11.64       9.401       7.523       5.665       3.741       2.352       1.160      0.8135    
       0.3956      0.1813      1.0000E-02  1.0000E-02  1.0000E-02  1.0000E-02  1.0000E-02  1.0000E-02  1.0000E-02  1.0000E-02
       1.0000E-02  1.0000E-02  1.0000E-02  1.0000E-02  1.0000E-02  1.0000E-02  1.0000E-02  1.0000E-02  1.0000E-02  1.0000E-02
       1.0000E-02  1.0000E-02  1.0000E-02  1.0000E-02  1.0000E-02  1.0000E-02  1.0000E-02  1.0000E-02  1.0000E-02  1.0000E-02
       1.0000E-02  1.0000E-02  1.0000E-02  1.0000E-02  1.0000E-02
  61    27.31       29.03       30.54       31.78       32.84       33.74       34.46       35.02       35.45       35.75    
        36.01       36.16       36.15       35.99       35.68       35.25       34.68       34.02       33.26       32.39    
        31.37       30.15       28.95       27.94       26.85       25.61       24.21       22.67       20.94       19.00    
        16.95       14.87       12.73       10.66       8.743       6.939       5.234       3.699       2.239       1.466    
       0.7609      0.2010      0.1151      6.4661E-02  1.0000E-02  1.0000E-02  1.0000E-02  1.0000E-02  1.0000E-02  1.0000E-02
       1.0000E-02  1.0000E-02  1.0000E-02  1.0000E-02  1.0000E-02  1.0000E-02  1.0000E-02  1.0000E-02  1.0000E-02  1.0000E-02
       1.0000E-02  1.0000E-02  1.0000E-02  1.0000E-02  1.0000E-02  1.0000E-02  1.0000E-02  1.0000E-02  1.0000E-02  1.0000E-02
       1.0000E-02  1.0000E-02  1.0000E-02  1.0000E-02  1.0000E-02
  62    27.20       28.80       30.21       31.45       32.54       33.47       34.24       34.84       35.31       35.64    
        35.91       36.07       36.06       35.89       35.55       35.08       34.49       33.80       33.03       32.15    
        31.13       29.94       28.82       27.86       26.81       25.61       24.27       22.83       21.21       19.37    
        17.42       15.43       13.45       11.50       9.647       7.885       6.222       4.708       3.394       2.411    
        1.608      0.8579      0.5252      0.3444      0.1901      7.1898E-02  1.0000E-02  1.0000E-02  1.0000E-02  1.0000E-02
       1.0000E-02  1.0000E-02  1.0000E-02  1.0000E-02  1.0000E-02  1.0000E-02  1.0000E-02  1.0000E-02  1.0000E-02  1.0000E-02
       1.0000E-02  1.0000E-02  1.0000E-02  1.0000E-02  1.0000E-02  1.0000E-02  1.0000E-02  1.0000E-02  1.0000E-02  1.0000E-02
       1.0000E-02  1.0000E-02  1.0000E-02  1.0000E-02  1.0000E-02
  63    27.07       28.58       29.93       31.14       32.23       33.17       33.96       34.59       35.08       35.43    
        35.66       35.82       35.77       35.62       35.28       34.79       34.16       33.44       32.64       31.75    
        30.77       29.63       28.60       27.68       26.66       25.49       24.22       22.84       21.27       19.56    
        17.74       15.85       13.95       12.09       10.31       8.610       6.931       5.385       4.037       2.955    
        2.101       1.455       1.013      0.6965      0.4200      0.1485      1.0000E-02  1.0000E-02  1.0000E-02  1.0000E-02
       1.0000E-02  1.0000E-02  1.0000E-02  1.0000E-02  1.0000E-02  1.0000E-02  1.0000E-02  1.0000E-02  1.0000E-02  1.0000E-02
       1.0000E-02  1.0000E-02  1.0000E-02  1.0000E-02  1.0000E-02  1.0000E-02  1.0000E-02  1.0000E-02  1.0000E-02  1.0000E-02
       1.0000E-02  1.0000E-02  1.0000E-02  1.0000E-02  1.0000E-02
  64    26.90       28.34       29.65       30.84       31.90       32.82       33.60       34.25       34.76       35.12    
        35.33       35.39       35.33       35.17       34.84       34.32       33.65       32.88       32.06       31.15    
        30.21       29.23       28.35       27.41       26.40       25.27       24.04       22.69       21.18       19.55    
        17.82       16.02       14.20       12.43       10.75       9.155       7.415       5.761       4.298       3.160    
        2.229       1.597       1.163      0.8387      0.5685      0.1996      1.0000E-02  1.0000E-02  1.0000E-02  1.0000E-02
       1.0000E-02  1.0000E-02  1.0000E-02  1.0000E-02  1.0000E-02  1.0000E-02  1.0000E-02  1.0000E-02  1.0000E-02  1.0000E-02
       1.0000E-02  1.0000E-02  1.0000E-02  1.0000E-02  1.0000E-02  1.0000E-02  1.0000E-02  1.0000E-02  1.0000E-02  1.0000E-02
       1.0000E-02  1.0000E-02  1.0000E-02  1.0000E-02  1.0000E-02
  65    26.70       28.10       29.37       30.53       31.57       32.42       33.19       33.85       34.34       34.69    
        34.89       34.93       34.83       34.58       34.21       33.70       32.93       32.10       31.27       30.44    
        29.67       28.84       27.95       27.01       26.00       24.92       23.74       22.46       21.01       19.39    
        17.68       15.92       14.12       12.37       10.81       9.623       8.222       5.964       4.082       3.031    
        1.941       1.409       1.076      0.7932      0.3941      1.8152E-02  1.0000E-02  1.0000E-02  1.0000E-02  1.0000E-02
       1.0000E-02  1.0000E-02  1.0000E-02  1.0000E-02  1.0000E-02  1.0000E-02  1.0000E-02  1.0000E-02  1.0000E-02  1.0000E-02
       1.0000E-02  1.0000E-02  1.0000E-02  1.0000E-02  1.0000E-02  1.0000E-02  1.0000E-02  1.0000E-02  1.0000E-02  1.0000E-02
       1.0000E-02  1.0000E-02  1.0000E-02  1.0000E-02  1.0000E-02
  66    26.48       27.84       29.07       30.17       31.14       31.97       32.69       33.31       33.80       34.17    
        34.33       34.34       34.19       33.87       33.39       32.80       32.00       31.24       30.55       29.84    
        29.08       28.25       27.37       26.42       25.42       24.37       23.26       22.10       20.73       19.04    
        17.38       15.68       13.75       11.88       10.29       8.956       7.772       6.241       4.077       2.367    
       0.9304      0.8753      0.7480      0.4910      0.1402      1.0000E-02  1.0000E-02  1.0000E-02  1.0000E-02  1.0000E-02
       1.0000E-02  1.0000E-02  1.0000E-02  1.0000E-02  1.0000E-02  1.0000E-02  1.0000E-02  1.0000E-02  1.0000E-02  1.0000E-02
       1.0000E-02  1.0000E-02  1.0000E-02  1.0000E-02  1.0000E-02  1.0000E-02  1.0000E-02  1.0000E-02  1.0000E-02  1.0000E-02
       1.0000E-02  1.0000E-02  1.0000E-02  1.0000E-02  1.0000E-02
  67    26.23       27.56       28.73       29.78       30.68       31.46       32.13       32.70       33.16       33.50    
        33.62       33.60       33.40       33.01       32.51       31.88       31.14       30.49       29.80       29.09    
        28.32       27.50       26.63       25.67       24.67       23.66       22.56       21.36       20.11       18.71    
        17.33       15.39       12.88       10.95       9.330       7.868       6.655       5.148       2.885      0.9005    
       1.0000E-02  0.2484      0.3262      0.1576      1.0000E-02  1.0000E-02  1.0000E-02  1.0000E-02  1.0000E-02  1.0000E-02
       1.0000E-02  1.0000E-02  1.0000E-02  1.0000E-02  1.0000E-02  1.0000E-02  1.0000E-02  1.0000E-02  1.0000E-02  1.0000E-02
       1.0000E-02  1.0000E-02  1.0000E-02  1.0000E-02  1.0000E-02  1.0000E-02  1.0000E-02  1.0000E-02  1.0000E-02  1.0000E-02
       1.0000E-02  1.0000E-02  1.0000E-02  1.0000E-02  1.0000E-02
  68    25.96       27.23       28.37       29.36       30.19       30.90       31.50       32.02       32.43       32.68    
        32.78       32.72       32.47       32.05       31.53       30.92       30.23       29.57       28.89       28.17    
        27.41       26.59       25.70       24.76       23.76       22.72       21.60       20.48       19.22       18.12    
        16.62       14.15       11.63       10.01       7.544       5.567       4.440       2.806       1.007      1.0000E-02
       1.0000E-02  1.0000E-02  1.0000E-02  1.0000E-02  1.0000E-02  1.0000E-02  1.0000E-02  1.0000E-02  1.0000E-02  1.0000E-02
       1.0000E-02  1.0000E-02  1.0000E-02  1.0000E-02  1.0000E-02  1.0000E-02  1.0000E-02  1.0000E-02  1.0000E-02  1.0000E-02
       1.0000E-02  1.0000E-02  1.0000E-02  1.0000E-02  1.0000E-02  1.0000E-02  1.0000E-02  1.0000E-02  1.0000E-02  1.0000E-02
       1.0000E-02  1.0000E-02  1.0000E-02  1.0000E-02  1.0000E-02
  69    25.65       26.85       27.94       28.87       29.64       30.28       30.81       31.23       31.55       31.74    
        31.81       31.72       31.42       30.95       30.36       29.75       29.12       28.48       27.79       27.06    
        26.31       25.49       24.59       23.65       22.65       21.59       20.43       19.21       17.91       16.53    
        14.91       12.89       10.41       7.287       4.481       2.259       1.528      0.5308      1.0000E-02  1.0000E-02
       1.0000E-02  1.0000E-02  1.0000E-02  1.0000E-02  1.0000E-02  1.0000E-02  1.0000E-02  1.0000E-02  1.0000E-02  1.0000E-02
       1.0000E-02  1.0000E-02  1.0000E-02  1.0000E-02  1.0000E-02  1.0000E-02  1.0000E-02  1.0000E-02  1.0000E-02  1.0000E-02
       1.0000E-02  1.0000E-02  1.0000E-02  1.0000E-02  1.0000E-02  1.0000E-02  1.0000E-02  1.0000E-02  1.0000E-02  1.0000E-02
       1.0000E-02  1.0000E-02  1.0000E-02  1.0000E-02  1.0000E-02
  70    25.31       26.41       27.42       28.29       28.98       29.55       30.01       30.37       30.61       30.74    
        30.74       30.59       30.23       29.66       29.07       28.45       27.85       27.20       26.50       25.77    
        25.02       24.20       23.30       22.35       21.34       20.25       19.07       17.79       16.39       14.84    
        13.07       10.92       7.845       3.106      1.0000E-02  1.0000E-02  1.0000E-02  1.0000E-02  1.0000E-02  1.0000E-02
       1.0000E-02  1.0000E-02  1.0000E-02  1.0000E-02  1.0000E-02  1.0000E-02  1.0000E-02  1.0000E-02  1.0000E-02  1.0000E-02
       1.0000E-02  1.0000E-02  1.0000E-02  1.0000E-02  1.0000E-02  1.0000E-02  1.0000E-02  1.0000E-02  1.0000E-02  1.0000E-02
       1.0000E-02  1.0000E-02  1.0000E-02  1.0000E-02  1.0000E-02  1.0000E-02  1.0000E-02  1.0000E-02  1.0000E-02  1.0000E-02
       1.0000E-02  1.0000E-02  1.0000E-02  1.0000E-02  1.0000E-02
  71    24.93       25.92       26.82       27.59       28.20       28.67       29.05       29.35       29.53       29.62    
        29.56       29.29       28.85       28.25       27.63       26.99       26.38       25.74       25.04       24.32    
        23.56       22.73       21.86       20.89       19.84       18.74       17.53       16.21       14.73       13.05    
        11.24       8.751       3.878      1.0000E-02  1.0000E-02  1.0000E-02  1.0000E-02  1.0000E-02  1.0000E-02  1.0000E-02
       1.0000E-02  1.0000E-02  1.0000E-02  1.0000E-02  1.0000E-02  1.0000E-02  1.0000E-02  1.0000E-02  1.0000E-02  1.0000E-02
       1.0000E-02  1.0000E-02  1.0000E-02  1.0000E-02  1.0000E-02  1.0000E-02  1.0000E-02  1.0000E-02  1.0000E-02  1.0000E-02
       1.0000E-02  1.0000E-02  1.0000E-02  1.0000E-02  1.0000E-02  1.0000E-02  1.0000E-02  1.0000E-02  1.0000E-02  1.0000E-02
       1.0000E-02  1.0000E-02  1.0000E-02  1.0000E-02  1.0000E-02
  72    24.52       25.40       26.14       26.77       27.28       27.63       27.89       28.09       28.23       28.31    
        28.23       27.78       27.25       26.61       25.98       25.35       24.73       24.09       23.42       22.70    
        21.95       21.12       20.22       19.24       18.17       17.05       15.84       14.51       12.95       11.08    
        8.960       4.726       1.080      1.0000E-02  1.0000E-02  1.0000E-02  1.0000E-02  1.0000E-02  1.0000E-02  1.0000E-02
       1.0000E-02  1.0000E-02  1.0000E-02  1.0000E-02  1.0000E-02  1.0000E-02  1.0000E-02  1.0000E-02  1.0000E-02  1.0000E-02
       1.0000E-02  1.0000E-02  1.0000E-02  1.0000E-02  1.0000E-02  1.0000E-02  1.0000E-02  1.0000E-02  1.0000E-02  1.0000E-02
       1.0000E-02  1.0000E-02  1.0000E-02  1.0000E-02  1.0000E-02  1.0000E-02  1.0000E-02  1.0000E-02  1.0000E-02  1.0000E-02
       1.0000E-02  1.0000E-02  1.0000E-02  1.0000E-02  1.0000E-02
  73    24.08       24.86       25.38       25.81       26.15       26.37       26.49       26.56       26.63       26.69    
        26.85       25.94       25.28       24.67       24.07       23.50       22.92       22.30       21.65       20.92    
        20.16       19.31       18.38       17.38       16.29       15.15       14.00       12.76       11.21       8.457    
        5.620       1.214      1.0000E-02  1.0000E-02  1.0000E-02  1.0000E-02  1.0000E-02  1.0000E-02  1.0000E-02  1.0000E-02
       1.0000E-02  1.0000E-02  1.0000E-02  1.0000E-02  1.0000E-02  1.0000E-02  1.0000E-02  1.0000E-02  1.0000E-02  1.0000E-02
       1.0000E-02  1.0000E-02  1.0000E-02  1.0000E-02  1.0000E-02  1.0000E-02  1.0000E-02  1.0000E-02  1.0000E-02  1.0000E-02
       1.0000E-02  1.0000E-02  1.0000E-02  1.0000E-02  1.0000E-02  1.0000E-02  1.0000E-02  1.0000E-02  1.0000E-02  1.0000E-02
       1.0000E-02  1.0000E-02  1.0000E-02  1.0000E-02  1.0000E-02
  74    23.92       24.35       24.57       24.71       24.81       24.86       24.80       24.69       24.61       24.52    
        24.67       23.57       23.05       22.50       21.95       21.45       20.92       20.31       19.64       18.93    
        18.15       17.28       16.33       15.29       14.16       13.04       11.99       10.98       8.621       3.552    
        1.903      1.0000E-02  1.0000E-02  1.0000E-02  1.0000E-02  1.0000E-02  1.0000E-02  1.0000E-02  1.0000E-02  1.0000E-02
       1.0000E-02  1.0000E-02  1.0000E-02  1.0000E-02  1.0000E-02  1.0000E-02  1.0000E-02  1.0000E-02  1.0000E-02  1.0000E-02
       1.0000E-02  1.0000E-02  1.0000E-02  1.0000E-02  1.0000E-02  1.0000E-02  1.0000E-02  1.0000E-02  1.0000E-02  1.0000E-02
       1.0000E-02  1.0000E-02  1.0000E-02  1.0000E-02  1.0000E-02  1.0000E-02  1.0000E-02  1.0000E-02  1.0000E-02  1.0000E-02
       1.0000E-02  1.0000E-02  1.0000E-02  1.0000E-02  1.0000E-02
  75    23.92       23.78       23.62       23.45       23.25       23.03       22.77       22.48       22.17       21.84    
        21.50       21.12       20.71       20.26       19.76       19.22       18.67       18.07       17.41       16.70    
        15.90       15.01       14.06       13.01       11.78       10.60       9.583       8.617       7.643      1.0000E-02
       1.0000E-02  1.0000E-02  1.0000E-02  1.0000E-02  1.0000E-02  1.0000E-02  1.0000E-02  1.0000E-02  1.0000E-02  1.0000E-02
       1.0000E-02  1.0000E-02  1.0000E-02  1.0000E-02  1.0000E-02  1.0000E-02  1.0000E-02  1.0000E-02  1.0000E-02  1.0000E-02
       1.0000E-02  1.0000E-02  1.0000E-02  1.0000E-02  1.0000E-02  1.0000E-02  1.0000E-02  1.0000E-02  1.0000E-02  1.0000E-02
       1.0000E-02  1.0000E-02  1.0000E-02  1.0000E-02  1.0000E-02  1.0000E-02  1.0000E-02  1.0000E-02  1.0000E-02  1.0000E-02
       1.0000E-02  1.0000E-02  1.0000E-02  1.0000E-02  1.0000E-02

 HEAD WILL BE SAVED ON UNIT   51 AT END OF TIME STEP    1, STRESS PERIOD    1
1
  VOLUMETRIC BUDGET FOR ENTIRE MODEL AT END OF TIME STEP    1, STRESS PERIOD   1
  ------------------------------------------------------------------------------

     CUMULATIVE VOLUMES      L**3       RATES FOR THIS TIME STEP      L**3/T
     ------------------                 ------------------------

           IN:                                      IN:
           ---                                      ---
             STORAGE =           0.0000               STORAGE =           0.0000
       CONSTANT HEAD =    13537974.0000         CONSTANT HEAD =        3709.0339
            RECHARGE =   759784832.0000              RECHARGE =      208160.2344

            TOTAL IN =   773322816.0000              TOTAL IN =      211869.2656

          OUT:                                     OUT:
          ----                                     ----
             STORAGE =           0.0000               STORAGE =           0.0000
       CONSTANT HEAD =   773322880.0000         CONSTANT HEAD =      211869.2812
            RECHARGE =           0.0000              RECHARGE =           0.0000

           TOTAL OUT =   773322880.0000             TOTAL OUT =      211869.2812

            IN - OUT =         -64.0000              IN - OUT =      -1.5625E-02

 PERCENT DISCREPANCY =          -0.00     PERCENT DISCREPANCY =          -0.00






         TIME SUMMARY AT END OF TIME STEP    1 IN STRESS PERIOD    1
                    SECONDS     MINUTES      HOURS       DAYS        YEARS
                    -----------------------------------------------------------
   TIME STEP LENGTH 3.15360E+08 5.25600E+06  87600.      3650.0      9.9932    
 STRESS PERIOD TIME 3.15360E+08 5.25600E+06  87600.      3650.0      9.9932    
         TOTAL TIME 3.15360E+08 5.25600E+06  87600.      3650.0      9.9932    
1

 HEAD AND DRAWDOWN OBSERVATIONS
 OBSERVATION       OBSERVED           SIMULATED
   NAME              VALUE              VALUE             DIFFERENCE
 --------------------------------------------------------------------
 Obs_0           62.500000000        27.795034409        34.704963684    
 Obs_1           15.800000191        23.045717239       -7.2457170486    
 Obs_2           1.2000000477        13.109926224       -11.909926414    
 Obs_3           7.3000001907        13.733173370       -6.4331731796    
 Obs_4           7.3000001907        16.662303925       -9.3623037338    
 Obs_5           10.500000000        18.294605255       -7.7946052551    
 Obs_6           9.4499998093        17.837667465       -8.3876676559    
 Obs_7           14.550000191        19.407135010       -4.8571348190    
 Obs_8           20.299999237        20.703079224      -0.40307998657    
 Obs_9           1.2000000477        7.4384112358       -6.2384109497    
 Obs_10          3.0000000000        7.2558050156       -4.2558050156    
 Obs_11          6.6500000954        8.1199455261       -1.4699454308    
 Obs_12          2.7000000477        5.9345293045       -3.2345292568    
 Obs_13          6.0999999046        1.3712641001        4.7287359238    
 Obs_14         0.10000000149       0.23550164700      -0.13550165296    
 Obs_15          8.1000003815        8.5248432159      -0.42484283447    
 Obs_16          8.1999998093        8.4382400513      -0.23824024200    
 Obs_17          5.5999999046        4.6257076263       0.97429227829    
 Obs_18          5.5000000000        4.2828822136        1.2171177864    
 Obs_19          4.9000000954        5.4336857796      -0.53368568420    
 Obs_20          6.0000000000        9.8313055038       -3.8313055038    
 Obs_21          7.3000001907        9.5056753159       -2.2056751251    

 HEAD/DRAWDOWN SUM OF SQUARED DIFFERENCE:    1.79721E+03

 Run end date and time (yyyy/mm/dd hh:mm:ss): 2021/06/15 13:19:34
 Elapsed run time:  0.043 Seconds

